Program Version,EnergyPlus, Version 8.9.0-40101eaafd, YMD=2018.05.31 17:12,
   ** Warning ** ProcessScheduleInput: Schedule:Constant="ALWAYS OFF DISCRETE", Blank Schedule Type Limits Name input -- will not be validated.
   ** Warning ** ProcessScheduleInput: Schedule:Constant="ALWAYS ON CONTINUOUS", Blank Schedule Type Limits Name input -- will not be validated.
   ************* Beginning Zone Sizing Calculations
   ** Warning ** Standard Time Meridian and Time Zone differ by more than 1, Difference="2.0"
   **   ~~~   ** Solar Positions may be incorrect
   ** Warning ** GetHTSurfaceData: Surfaces with interface to Ground found but no "Ground Temperatures" were input.
   **   ~~~   ** Found first in surface=SURFACE 9
   **   ~~~   ** Defaults, constant throughout the year of (18.0) will be used.
   ** Warning ** GetSurfaceData: WindowProperty:ShadingControl: "SHADING CONTROL 1" is not referenced by any window.
   ** Warning ** CheckUsedConstructions: There are 12 nominally unused constructions in input.
   **   ~~~   ** For explicit details on each unused construction, use Output:Diagnostics,DisplayExtraWarnings;
   ** Warning ** Calculated design heating load for zone=01_A1 is zero.
   **   ~~~   ** Check Sizing:Zone and ZoneControl:Thermostat inputs.
   ** Warning ** Calculated design heating load for zone=01_A2 is zero.
   **   ~~~   ** Check Sizing:Zone and ZoneControl:Thermostat inputs.
   ** Warning ** Calculated design heating load for zone=01_B2 is zero.
   **   ~~~   ** Check Sizing:Zone and ZoneControl:Thermostat inputs.
   ** Warning ** Calculated design heating load for zone=01_C1 is zero.
   **   ~~~   ** Check Sizing:Zone and ZoneControl:Thermostat inputs.
   ** Warning ** Calculated design heating load for zone=02_A1 is zero.
   **   ~~~   ** Check Sizing:Zone and ZoneControl:Thermostat inputs.
   ** Warning ** Calculated design heating load for zone=02_A2 is zero.
   **   ~~~   ** Check Sizing:Zone and ZoneControl:Thermostat inputs.
   ** Warning ** Calculated design heating load for zone=02_B2 is zero.
   **   ~~~   ** Check Sizing:Zone and ZoneControl:Thermostat inputs.
   ** Warning ** Calculated design heating load for zone=02_C1 is zero.
   **   ~~~   ** Check Sizing:Zone and ZoneControl:Thermostat inputs.
   ** Warning ** Calculated design heating load for zone=03_A1 is zero.
   **   ~~~   ** Check Sizing:Zone and ZoneControl:Thermostat inputs.
   ** Warning ** Calculated design heating load for zone=03_A2 is zero.
   **   ~~~   ** Check Sizing:Zone and ZoneControl:Thermostat inputs.
   ** Warning ** Calculated design heating load for zone=03_B2 is zero.
   **   ~~~   ** Check Sizing:Zone and ZoneControl:Thermostat inputs.
   ** Warning ** Calculated design heating load for zone=03_C1 is zero.
   **   ~~~   ** Check Sizing:Zone and ZoneControl:Thermostat inputs.
   ************* Beginning System Sizing Calculations
   ** Warning ** AirLoopHVAC:UnitarySystem "UNITARY - DX HEAT PUMP - CYCLING - ELEC REHEAT"
   **   ~~~   ** ...For fan type and name = Fan:OnOff "FAN ON OFF 5"
   **   ~~~   ** ...Fan power ratio function of speed ratio curve has no impact if fan volumetric flow rate is the same as the unitary system volumetric flow rate.
   **   ~~~   ** ...Fan volumetric flow rate            = 0.32470 m3/s.
   **   ~~~   ** ...Unitary system volumetric flow rate = 0.32470 m3/s.
   ** Warning ** AirLoopHVAC:UnitarySystem "UNITARY - DX HEAT PUMP - CYCLING - ELEC REHEAT 9"
   **   ~~~   ** ...For fan type and name = Fan:OnOff "FAN ON OFF 14"
   **   ~~~   ** ...Fan power ratio function of speed ratio curve has no impact if fan volumetric flow rate is the same as the unitary system volumetric flow rate.
   **   ~~~   ** ...Fan volumetric flow rate            = 0.36514 m3/s.
   **   ~~~   ** ...Unitary system volumetric flow rate = 0.36514 m3/s.
   ** Warning ** AirLoopHVAC:UnitarySystem "UNITARY - DX HEAT PUMP - CYCLING - ELEC REHEAT 10"
   **   ~~~   ** ...For fan type and name = Fan:OnOff "FAN ON OFF 15"
   **   ~~~   ** ...Fan power ratio function of speed ratio curve has no impact if fan volumetric flow rate is the same as the unitary system volumetric flow rate.
   **   ~~~   ** ...Fan volumetric flow rate            = 0.41629 m3/s.
   **   ~~~   ** ...Unitary system volumetric flow rate = 0.41629 m3/s.
   ** Warning ** AirLoopHVAC:UnitarySystem "UNITARY - DX HEAT PUMP - CYCLING - ELEC REHEAT 11"
   **   ~~~   ** ...For fan type and name = Fan:OnOff "FAN ON OFF 16"
   **   ~~~   ** ...Fan power ratio function of speed ratio curve has no impact if fan volumetric flow rate is the same as the unitary system volumetric flow rate.
   **   ~~~   ** ...Fan volumetric flow rate            = 0.36198 m3/s.
   **   ~~~   ** ...Unitary system volumetric flow rate = 0.36198 m3/s.
   ** Warning ** AirLoopHVAC:UnitarySystem "UNITARY - DX HEAT PUMP - CYCLING - ELEC REHEAT 1"
   **   ~~~   ** ...For fan type and name = Fan:OnOff "FAN ON OFF 6"
   **   ~~~   ** ...Fan power ratio function of speed ratio curve has no impact if fan volumetric flow rate is the same as the unitary system volumetric flow rate.
   **   ~~~   ** ...Fan volumetric flow rate            = 0.32470 m3/s.
   **   ~~~   ** ...Unitary system volumetric flow rate = 0.32470 m3/s.
   ** Warning ** AirLoopHVAC:UnitarySystem "UNITARY - DX HEAT PUMP - CYCLING - ELEC REHEAT 2"
   **   ~~~   ** ...For fan type and name = Fan:OnOff "FAN ON OFF 7"
   **   ~~~   ** ...Fan power ratio function of speed ratio curve has no impact if fan volumetric flow rate is the same as the unitary system volumetric flow rate.
   **   ~~~   ** ...Fan volumetric flow rate            = 0.32470 m3/s.
   **   ~~~   ** ...Unitary system volumetric flow rate = 0.32470 m3/s.
   ** Warning ** AirLoopHVAC:UnitarySystem "UNITARY - DX HEAT PUMP - CYCLING - ELEC REHEAT 3"
   **   ~~~   ** ...For fan type and name = Fan:OnOff "FAN ON OFF 8"
   **   ~~~   ** ...Fan power ratio function of speed ratio curve has no impact if fan volumetric flow rate is the same as the unitary system volumetric flow rate.
   **   ~~~   ** ...Fan volumetric flow rate            = 0.32470 m3/s.
   **   ~~~   ** ...Unitary system volumetric flow rate = 0.32470 m3/s.
   ** Warning ** AirLoopHVAC:UnitarySystem "UNITARY - DX HEAT PUMP - CYCLING - ELEC REHEAT 4"
   **   ~~~   ** ...For fan type and name = Fan:OnOff "FAN ON OFF 9"
   **   ~~~   ** ...Fan power ratio function of speed ratio curve has no impact if fan volumetric flow rate is the same as the unitary system volumetric flow rate.
   **   ~~~   ** ...Fan volumetric flow rate            = 0.32470 m3/s.
   **   ~~~   ** ...Unitary system volumetric flow rate = 0.32470 m3/s.
   ** Warning ** AirLoopHVAC:UnitarySystem "UNITARY - DX HEAT PUMP - CYCLING - ELEC REHEAT 5"
   **   ~~~   ** ...For fan type and name = Fan:OnOff "FAN ON OFF 10"
   **   ~~~   ** ...Fan power ratio function of speed ratio curve has no impact if fan volumetric flow rate is the same as the unitary system volumetric flow rate.
   **   ~~~   ** ...Fan volumetric flow rate            = 0.34898 m3/s.
   **   ~~~   ** ...Unitary system volumetric flow rate = 0.34898 m3/s.
   ** Warning ** AirLoopHVAC:UnitarySystem "UNITARY - DX HEAT PUMP - CYCLING - ELEC REHEAT 6"
   **   ~~~   ** ...For fan type and name = Fan:OnOff "FAN ON OFF 11"
   **   ~~~   ** ...Fan power ratio function of speed ratio curve has no impact if fan volumetric flow rate is the same as the unitary system volumetric flow rate.
   **   ~~~   ** ...Fan volumetric flow rate            = 0.39258 m3/s.
   **   ~~~   ** ...Unitary system volumetric flow rate = 0.39258 m3/s.
   ** Warning ** AirLoopHVAC:UnitarySystem "UNITARY - DX HEAT PUMP - CYCLING - ELEC REHEAT 7"
   **   ~~~   ** ...For fan type and name = Fan:OnOff "FAN ON OFF 12"
   **   ~~~   ** ...Fan power ratio function of speed ratio curve has no impact if fan volumetric flow rate is the same as the unitary system volumetric flow rate.
   **   ~~~   ** ...Fan volumetric flow rate            = 0.34496 m3/s.
   **   ~~~   ** ...Unitary system volumetric flow rate = 0.34496 m3/s.
   ** Warning ** AirLoopHVAC:UnitarySystem "UNITARY - DX HEAT PUMP - CYCLING - ELEC REHEAT 8"
   **   ~~~   ** ...For fan type and name = Fan:OnOff "FAN ON OFF 13"
   **   ~~~   ** ...Fan power ratio function of speed ratio curve has no impact if fan volumetric flow rate is the same as the unitary system volumetric flow rate.
   **   ~~~   ** ...Fan volumetric flow rate            = 0.32470 m3/s.
   **   ~~~   ** ...Unitary system volumetric flow rate = 0.32470 m3/s.
   ************* Testing Individual Branch Integrity
   ************* All Branches passed integrity testing
   ************* Testing Individual Supply Air Path Integrity
   ************* All Supply Air Paths passed integrity testing
   ************* Testing Individual Return Air Path Integrity
   ************* All Return Air Paths passed integrity testing
   ** Severe  ** Node Connection Error, Node="NODE 23", ZoneInlet node did not find an outlet node.
   **   ~~~   ** Reference Object=ZONEHVAC:EQUIPMENTCONNECTIONS, Name=01_A2
   ** Severe  ** Node Connection Error, Node="NODE 22", ZoneExhaust node did not find a matching inlet node.
   **   ~~~   ** Reference Object=ZONEHVAC:EQUIPMENTCONNECTIONS, Name=01_A2
   ************* There were 2 node connection errors noted.
   ************* Beginning Simulation
   ** Warning ** CalcDoe2DXCoil: Coil:Cooling:DX:SingleSpeed "1 SPD DX CLG COIL 13" - Air-cooled condenser inlet dry-bulb temperature below 0 C. Outdoor dry-bulb temperature = -6.40
   **   ~~~   **  ... Occurrence info = ADAKNASANNHTG99.6CONDNSDB, 01/21 00:00 - 00:10
   **   ~~~   ** ... Operation at low ambient temperatures may require special performance curves.
   ** Warning ** CalcDoe2DXCoil: Coil:Cooling:DX:SingleSpeed "1 SPD DX CLG COIL 14" - Air-cooled condenser inlet dry-bulb temperature below 0 C. Outdoor dry-bulb temperature = -6.40
   **   ~~~   **  ... Occurrence info = ADAKNASANNHTG99.6CONDNSDB, 01/21 00:00 - 00:10
   **   ~~~   ** ... Operation at low ambient temperatures may require special performance curves.
   ** Warning ** CalcDoe2DXCoil: Coil:Cooling:DX:SingleSpeed "1 SPD DX CLG COIL 15" - Air-cooled condenser inlet dry-bulb temperature below 0 C. Outdoor dry-bulb temperature = -6.40
   **   ~~~   **  ... Occurrence info = ADAKNASANNHTG99.6CONDNSDB, 01/21 00:00 - 00:10
   **   ~~~   ** ... Operation at low ambient temperatures may require special performance curves.
   ** Warning ** CalcDoe2DXCoil: Coil:Cooling:DX:SingleSpeed "1 SPD DX CLG COIL 8" - Air-cooled condenser inlet dry-bulb temperature below 0 C. Outdoor dry-bulb temperature = -6.40
   **   ~~~   **  ... Occurrence info = ADAKNASANNHTG99.6CONDNSDB, 01/21 00:00 - 00:10
   **   ~~~   ** ... Operation at low ambient temperatures may require special performance curves.
   ** Warning ** CalcDoe2DXCoil: Coil:Cooling:DX:SingleSpeed "1 SPD DX CLG COIL 9" - Air-cooled condenser inlet dry-bulb temperature below 0 C. Outdoor dry-bulb temperature = -6.40
   **   ~~~   **  ... Occurrence info = ADAKNASANNHTG99.6CONDNSDB, 01/21 00:00 - 00:10
   **   ~~~   ** ... Operation at low ambient temperatures may require special performance curves.
   ** Warning ** CalcDoe2DXCoil: Coil:Cooling:DX:SingleSpeed "1 SPD DX CLG COIL 10" - Air-cooled condenser inlet dry-bulb temperature below 0 C. Outdoor dry-bulb temperature = -6.40
   **   ~~~   **  ... Occurrence info = ADAKNASANNHTG99.6CONDNSDB, 01/21 00:00 - 00:10
   **   ~~~   ** ... Operation at low ambient temperatures may require special performance curves.
   ** Warning ** CalcDoe2DXCoil: Coil:Cooling:DX:SingleSpeed "1 SPD DX CLG COIL 11" - Air-cooled condenser inlet dry-bulb temperature below 0 C. Outdoor dry-bulb temperature = -6.40
   **   ~~~   **  ... Occurrence info = ADAKNASANNHTG99.6CONDNSDB, 01/21 00:00 - 00:10
   **   ~~~   ** ... Operation at low ambient temperatures may require special performance curves.
   ** Warning ** CalcDoe2DXCoil: Coil:Cooling:DX:SingleSpeed "1 SPD DX CLG COIL 12" - Air-cooled condenser inlet dry-bulb temperature below 0 C. Outdoor dry-bulb temperature = -6.40
   **   ~~~   **  ... Occurrence info = ADAKNASANNHTG99.6CONDNSDB, 01/21 00:00 - 00:10
   **   ~~~   ** ... Operation at low ambient temperatures may require special performance curves.
   ** Warning ** CalcDoe2DXCoil: Coil:Cooling:DX:SingleSpeed "1 SPD DX CLG COIL 5" - Air-cooled condenser inlet dry-bulb temperature below 0 C. Outdoor dry-bulb temperature = -6.40
   **   ~~~   **  ... Occurrence info = ADAKNASANNHTG99.6CONDNSDB, 01/21 07:10 - 07:20
   **   ~~~   ** ... Operation at low ambient temperatures may require special performance curves.
   ** Warning ** CalcDoe2DXCoil: Coil:Cooling:DX:SingleSpeed "1 SPD DX CLG COIL 4" - Air-cooled condenser inlet dry-bulb temperature below 0 C. Outdoor dry-bulb temperature = -6.40
   **   ~~~   **  ... Occurrence info = ADAKNASANNHTG99.6CONDNSDB, 01/21 08:40 - 08:50
   **   ~~~   ** ... Operation at low ambient temperatures may require special performance curves.
   ** Warning ** CalcDoe2DXCoil: Coil:Cooling:DX:SingleSpeed "1 SPD DX CLG COIL 6" - Air-cooled condenser inlet dry-bulb temperature below 0 C. Outdoor dry-bulb temperature = -6.40
   **   ~~~   **  ... Occurrence info = ADAKNASANNHTG99.6CONDNSDB, 01/21 17:20 - 17:30
   **   ~~~   ** ... Operation at low ambient temperatures may require special performance curves.
   ** Warning ** CalcDoe2DXCoil: Coil:Cooling:DX:SingleSpeed "1 SPD DX CLG COIL 7" - Air-cooled condenser inlet dry-bulb temperature below 0 C. Outdoor dry-bulb temperature = -6.40
   **   ~~~   **  ... Occurrence info = ADAKNASANNHTG99.6CONDNSDB, 01/21 17:40 - 17:50
   **   ~~~   ** ... Operation at low ambient temperatures may require special performance curves.
   ** Warning ** CalcDoe2DXCoil: Coil:Cooling:DX:SingleSpeed "1 SPD DX CLG COIL 8" - Full load outlet air dry-bulb temperature < 2C. This indicates the possibility of coil frost/freeze. Outlet temperature = 1.98 C.
   **   ~~~   **  ...Occurrence info = ADAKNASANNHUM_N99.6CONDNSDPMCDB, 01/21 02:40 - 02:50
   **   ~~~   ** ... Possible reasons for low outlet air dry-bulb temperatures are: This DX coil
   **   ~~~   **    1) may have a low inlet air dry-bulb temperature. Inlet air temperature = 22.250 C.
   **   ~~~   **    2) may have a low air flow rate per watt of cooling capacity. Check inputs.
   **   ~~~   **    3) is used as part of a HX assisted cooling coil which uses a high sensible effectiveness. Check inputs.
   ** Warning ** CalcDoe2DXCoil: Coil:Cooling:DX:SingleSpeed "1 SPD DX CLG COIL 12" - Full load outlet air dry-bulb temperature < 2C. This indicates the possibility of coil frost/freeze. Outlet temperature = 1.99 C.
   **   ~~~   **  ...Occurrence info = ADAKNASANNHUM_N99.6CONDNSDPMCDB, 01/21 03:40 - 03:50
   **   ~~~   ** ... Possible reasons for low outlet air dry-bulb temperatures are: This DX coil
   **   ~~~   **    1) may have a low inlet air dry-bulb temperature. Inlet air temperature = 22.251 C.
   **   ~~~   **    2) may have a low air flow rate per watt of cooling capacity. Check inputs.
   **   ~~~   **    3) is used as part of a HX assisted cooling coil which uses a high sensible effectiveness. Check inputs.
   ** Warning ** The resource referenced by LifeCycleCost:UsePriceEscalation= "U.S. AVG  COMMERCIAL-ELECTRICITY" has no energy cost. 
   **   ~~~   ** ... It is likely that the wrong resource is used. The resource should match the meter used in Utility:Tariff.
   ** Warning ** The resource referenced by LifeCycleCost:UsePriceEscalation= "U.S. AVG  COMMERCIAL-DISTILLATE OIL" has no energy cost. 
   **   ~~~   ** ... It is likely that the wrong resource is used. The resource should match the meter used in Utility:Tariff.
   ** Warning ** The resource referenced by LifeCycleCost:UsePriceEscalation= "U.S. AVG  COMMERCIAL-RESIDUAL OIL" has no energy cost. 
   **   ~~~   ** ... It is likely that the wrong resource is used. The resource should match the meter used in Utility:Tariff.
   ** Warning ** The resource referenced by LifeCycleCost:UsePriceEscalation= "U.S. AVG  COMMERCIAL-NATURAL GAS" has no energy cost. 
   **   ~~~   ** ... It is likely that the wrong resource is used. The resource should match the meter used in Utility:Tariff.
   ** Warning ** The resource referenced by LifeCycleCost:UsePriceEscalation= "U.S. AVG  COMMERCIAL-COAL" has no energy cost. 
   **   ~~~   ** ... It is likely that the wrong resource is used. The resource should match the meter used in Utility:Tariff.
   ************* Simulation Error Summary *************
   ** Warning ** The following Report Variables were requested but not generated -- check.rdd file
   **   ~~~   ** Either the IDF did not contain these elements, the variable name is misspelled,
   **   ~~~   ** or the requested variable is an advanced output which requires Output : Diagnostics, DisplayAdvancedReportVariables;
   ************* Key=*, VarName=SYSTEM NODE LAST TIMESTEP TEMPERATURE, Frequency=Hourly
   ************* There are 24 unused schedules in input.
   ************* There are 24 unused week schedules in input.
   ************* There are 82 unused day schedules in input.
   ************* Use Output:Diagnostics,DisplayUnusedSchedules; to see them.
   *************
   ************* ===== Recurring Error Summary =====
   ************* The following recurring error messages occurred.
   *************
   *************  ** Warning ** CalcDoe2DXCoil: Coil:Cooling:DX:SingleSpeed="1 SPD DX CLG COIL 13" - Low condenser dry-bulb temperature error continues...
   *************  **   ~~~   **   This error occurred 286 total times;
   *************  **   ~~~   **   during Warmup 0 times;
   *************  **   ~~~   **   during Sizing 0 times.
   *************  **   ~~~   **   Max=-4.6 [C]  Min=-6.4 [C]
   *************
   *************  ** Warning ** CalcDoe2DXCoil: Coil:Cooling:DX:SingleSpeed="1 SPD DX CLG COIL 14" - Low condenser dry-bulb temperature error continues...
   *************  **   ~~~   **   This error occurred 241 total times;
   *************  **   ~~~   **   during Warmup 0 times;
   *************  **   ~~~   **   during Sizing 0 times.
   *************  **   ~~~   **   Max=-4.6 [C]  Min=-6.4 [C]
   *************
   *************  ** Warning ** CalcDoe2DXCoil: Coil:Cooling:DX:SingleSpeed="1 SPD DX CLG COIL 15" - Low condenser dry-bulb temperature error continues...
   *************  **   ~~~   **   This error occurred 249 total times;
   *************  **   ~~~   **   during Warmup 0 times;
   *************  **   ~~~   **   during Sizing 0 times.
   *************  **   ~~~   **   Max=-4.6 [C]  Min=-6.4 [C]
   *************
   *************  ** Warning ** CalcDoe2DXCoil: Coil:Cooling:DX:SingleSpeed="1 SPD DX CLG COIL 8" - Low condenser dry-bulb temperature error continues...
   *************  **   ~~~   **   This error occurred 286 total times;
   *************  **   ~~~   **   during Warmup 0 times;
   *************  **   ~~~   **   during Sizing 0 times.
   *************  **   ~~~   **   Max=-4.6 [C]  Min=-6.4 [C]
   *************
   *************  ** Warning ** CalcDoe2DXCoil: Coil:Cooling:DX:SingleSpeed="1 SPD DX CLG COIL 9" - Low condenser dry-bulb temperature error continues...
   *************  **   ~~~   **   This error occurred 286 total times;
   *************  **   ~~~   **   during Warmup 0 times;
   *************  **   ~~~   **   during Sizing 0 times.
   *************  **   ~~~   **   Max=-4.6 [C]  Min=-6.4 [C]
   *************
   *************  ** Warning ** CalcDoe2DXCoil: Coil:Cooling:DX:SingleSpeed="1 SPD DX CLG COIL 10" - Low condenser dry-bulb temperature error continues...
   *************  **   ~~~   **   This error occurred 278 total times;
   *************  **   ~~~   **   during Warmup 0 times;
   *************  **   ~~~   **   during Sizing 0 times.
   *************  **   ~~~   **   Max=-4.6 [C]  Min=-6.4 [C]
   *************
   *************  ** Warning ** CalcDoe2DXCoil: Coil:Cooling:DX:SingleSpeed="1 SPD DX CLG COIL 11" - Low condenser dry-bulb temperature error continues...
   *************  **   ~~~   **   This error occurred 286 total times;
   *************  **   ~~~   **   during Warmup 0 times;
   *************  **   ~~~   **   during Sizing 0 times.
   *************  **   ~~~   **   Max=-4.6 [C]  Min=-6.4 [C]
   *************
   *************  ** Warning ** CalcDoe2DXCoil: Coil:Cooling:DX:SingleSpeed="1 SPD DX CLG COIL 12" - Low condenser dry-bulb temperature error continues...
   *************  **   ~~~   **   This error occurred 286 total times;
   *************  **   ~~~   **   during Warmup 0 times;
   *************  **   ~~~   **   during Sizing 0 times.
   *************  **   ~~~   **   Max=-4.6 [C]  Min=-6.4 [C]
   *************
   *************  ** Warning ** CalcDoe2DXCoil: Coil:Cooling:DX:SingleSpeed="1 SPD DX CLG COIL 5" - Low condenser dry-bulb temperature error continues...
   *************  **   ~~~   **   This error occurred 201 total times;
   *************  **   ~~~   **   during Warmup 0 times;
   *************  **   ~~~   **   during Sizing 0 times.
   *************  **   ~~~   **   Max=-4.6 [C]  Min=-6.4 [C]
   *************
   *************  ** Warning ** CalcDoe2DXCoil: Coil:Cooling:DX:SingleSpeed="1 SPD DX CLG COIL 4" - Low condenser dry-bulb temperature error continues...
   *************  **   ~~~   **   This error occurred 186 total times;
   *************  **   ~~~   **   during Warmup 0 times;
   *************  **   ~~~   **   during Sizing 0 times.
   *************  **   ~~~   **   Max=-4.6 [C]  Min=-6.4 [C]
   *************
   *************  ** Warning ** CalcDoe2DXCoil: Coil:Cooling:DX:SingleSpeed="1 SPD DX CLG COIL 6" - Low condenser dry-bulb temperature error continues...
   *************  **   ~~~   **   This error occurred 57 total times;
   *************  **   ~~~   **   during Warmup 0 times;
   *************  **   ~~~   **   during Sizing 0 times.
   *************  **   ~~~   **   Max=-4.6 [C]  Min=-6.4 [C]
   *************
   *************  ** Warning ** CalcDoe2DXCoil: Coil:Cooling:DX:SingleSpeed="1 SPD DX CLG COIL 7" - Low condenser dry-bulb temperature error continues...
   *************  **   ~~~   **   This error occurred 53 total times;
   *************  **   ~~~   **   during Warmup 0 times;
   *************  **   ~~~   **   during Sizing 0 times.
   *************  **   ~~~   **   Max=-4.6 [C]  Min=-6.4 [C]
   *************
   *************  ** Warning ** CalcDoe2DXCoil: Coil:Cooling:DX:SingleSpeed="1 SPD DX CLG COIL 8" - Full load outlet temperature indicates a possibility of frost/freeze error continues. Outlet air temperature statistics follow:
   *************  **   ~~~   **   This error occurred 27 total times;
   *************  **   ~~~   **   during Warmup 0 times;
   *************  **   ~~~   **   during Sizing 0 times.
   *************  **   ~~~   **   Max=1.984777  Min=1.806549
   *************
   *************  ** Warning ** CalcDoe2DXCoil: Coil:Cooling:DX:SingleSpeed="1 SPD DX CLG COIL 12" - Full load outlet temperature indicates a possibility of frost/freeze error continues. Outlet air temperature statistics follow:
   *************  **   ~~~   **   This error occurred 18 total times;
   *************  **   ~~~   **   during Warmup 0 times;
   *************  **   ~~~   **   during Sizing 0 times.
   *************  **   ~~~   **   Max=1.993831  Min=1.894717
   *************
   *************
   ************* ===== Final Error Summary =====
   ************* The following error categories occurred.  Consider correcting or noting.
   ************* Node Connection Errors
   ************* ..Node connection errors are often caused by spelling mistakes in a node name field.
   ************* ..To track down the problem, search the idf file for each node name listed to see if it
   ************* ..occurs in the expected input fields.
   ************* Nominally Unused Constructions
   ************* ..The nominally unused constructions warning is provided to alert you to potential conditions that can cause
   ************* ..extra time during simulation. Each construction is calculated by the algorithm indicated in the HeatBalanceAlgorithm
   ************* ..object. You may remove the constructions indicated (when you use the DisplayExtraWarnings option).
   *************
   ************* EnergyPlus Warmup Error Summary. During Warmup: 0 Warning; 0 Severe Errors.
   ************* EnergyPlus Sizing Error Summary. During Sizing: 18 Warning; 0 Severe Errors.
   ************* EnergyPlus Completed Successfully-- 2776 Warning; 2 Severe Errors; Elapsed Time=00hr 01min  0.55sec
