Program Version,EnergyPlus, Version 8.9.0-40101eaafd, YMD=2018.06.04 13:36
! <Version>, Version ID
 Version, 8.9
! <Timesteps per Hour>, #TimeSteps, Minutes per TimeStep {minutes}
 Timesteps per Hour,  6, 10
! <System Convergence Limits>, Minimum System TimeStep {minutes}, Max HVAC Iterations, Minimum Plant Iterations, Maximum Plant Iterations
 System Convergence Limits, 1, 20, 2, 8
! <Simulation Control>, Do Zone Sizing, Do System Sizing, Do Plant Sizing, Do Design Days, Do Weather Simulation, Do HVAC Sizing Simulation
 Simulation Control, Yes, Yes, No, Yes, Yes, No
! <Output Reporting Tolerances>, Tolerance for Time Heating Setpoint Not Met, Tolerance for Zone Cooling Setpoint Not Met Time
 Output Reporting Tolerances, 0.200, 0.200, 
! <Site:GroundTemperature:BuildingSurface>,Jan{C},Feb{C},Mar{C},Apr{C},May{C},Jun{C},Jul{C},Aug{C},Sep{C},Oct{C},Nov{C},Dec{C}
 Site:GroundTemperature:BuildingSurface,  18.00,  18.00,  18.00,  18.00,  18.00,  18.00,  18.00,  18.00,  18.00,  18.00,  18.00,  18.00
! <Site:GroundTemperature:FCfactorMethod>,Jan{C},Feb{C},Mar{C},Apr{C},May{C},Jun{C},Jul{C},Aug{C},Sep{C},Oct{C},Nov{C},Dec{C}
 Site:GroundTemperature:FCfactorMethod,   0.04,   0.92,   2.63,   4.25,   7.31,   8.93,   9.37,   8.55,   6.67,   4.31,   1.99,   0.46
! <Site:GroundTemperature:Shallow>,Jan{C},Feb{C},Mar{C},Apr{C},May{C},Jun{C},Jul{C},Aug{C},Sep{C},Oct{C},Nov{C},Dec{C}
 Site:GroundTemperature:Shallow,  13.00,  13.00,  13.00,  13.00,  13.00,  13.00,  13.00,  13.00,  13.00,  13.00,  13.00,  13.00
! <Site:GroundTemperature:Deep>,Jan{C},Feb{C},Mar{C},Apr{C},May{C},Jun{C},Jul{C},Aug{C},Sep{C},Oct{C},Nov{C},Dec{C}
 Site:GroundTemperature:Deep,  16.00,  16.00,  16.00,  16.00,  16.00,  16.00,  16.00,  16.00,  16.00,  16.00,  16.00,  16.00
! <Site:GroundReflectance>,Jan{dimensionless},Feb{dimensionless},Mar{dimensionless},Apr{dimensionless},May{dimensionless},Jun{dimensionless},Jul{dimensionless},Aug{dimensionless},Sep{dimensionless},Oct{dimensionless},Nov{dimensionless},Dec{dimensionless}
 Site:GroundReflectance,  0.20,  0.20,  0.20,  0.20,  0.20,  0.20,  0.20,  0.20,  0.20,  0.20,  0.20,  0.20
! <Site:GroundReflectance:SnowModifier>, Normal, Daylighting {dimensionless}
 Site:GroundReflectance:SnowModifier,   1.000,   1.000
! <Site:GroundReflectance:Snow>,Jan{dimensionless},Feb{dimensionless},Mar{dimensionless},Apr{dimensionless},May{dimensionless},Jun{dimensionless},Jul{dimensionless},Aug{dimensionless},Sep{dimensionless},Oct{dimensionless},Nov{dimensionless},Dec{dimensionless}
 Site:GroundReflectance:Snow,  0.20,  0.20,  0.20,  0.20,  0.20,  0.20,  0.20,  0.20,  0.20,  0.20,  0.20,  0.20
! <Site:GroundReflectance:Snow:Daylighting>,Jan{dimensionless},Feb{dimensionless},Mar{dimensionless},Apr{dimensionless},May{dimensionless},Jun{dimensionless},Jul{dimensionless},Aug{dimensionless},Sep{dimensionless},Oct{dimensionless},Nov{dimensionless},Dec{dimensionless}
 Site:GroundReflectance:Snow:Daylighting,  0.20,  0.20,  0.20,  0.20,  0.20,  0.20,  0.20,  0.20,  0.20,  0.20,  0.20,  0.20
! <Environment:Weather Station>,Wind Sensor Height Above Ground {m},Wind Speed Profile Exponent {},Wind Speed Profile Boundary Layer Thickness {m},Air Temperature Sensor Height Above Ground {m},Wind Speed Modifier Coefficient-Internal,Temperature Modifier Coefficient-Internal
Environment:Weather Station,10.000,0.140,270.000,1.500,1.586,9.750E-003
! <Site:Location>, Location Name, Latitude {N+/S- Deg}, Longitude {E+/W- Deg},  Time Zone Number {GMT+/-}, Elevation {m},  Standard Pressure at Elevation {Pa}, Standard RhoAir at Elevation
Site:Location,Adak NAS AK USA TMY--25704 WMO#=704540,51.88,-176.65,-10.00,5.00,101265,1.2036
! <Building Information>, Building Name,North Axis {deg},Terrain,  Loads Convergence Tolerance Value,Temperature Convergence Tolerance Value,  Solar Distribution,Maximum Number of Warmup Days,Minimum Number of Warmup Days
 Building Information,KA2 A Flatroof Sample Building,0.000,Suburbs,4.00000E-002,0.40000,FullExterior,25,6
! <Inside Convection Algorithm>, Algorithm {Simple | TARP | CeilingDiffuser | AdaptiveConvectionAlgorithm}
Inside Convection Algorithm,TARP
! <Outside Convection Algorithm>, Algorithm {SimpleCombined | TARP | MoWitt | DOE-2 | AdaptiveConvectionAlgorithm}
Outside Convection Algorithm,DOE-2
! <Sky Radiance Distribution>, Value {Anisotropic}
Sky Radiance Distribution,Anisotropic
! <Zone Air Solution Algorithm>, Value {ThirdOrderBackwardDifference | AnalyticalSolution | EulerMethod}
 Zone Air Solution Algorithm, ThirdOrderBackwardDifference
! <Zone Air Carbon Dioxide Balance Simulation>, Simulation {Yes/No}, Carbon Dioxide Concentration
 Zone Air Carbon Dioxide Balance Simulation, No,N/A
! <Zone Air Generic Contaminant Balance Simulation>, Simulation {Yes/No}, Generic Contaminant Concentration
 Zone Air Generic Contaminant Balance Simulation, No,N/A
! <Zone Air Mass Flow Balance Simulation>, Enforce Mass Balance, Adjust Zone Mixing, Adjust Zone Infiltration {AddInfiltration | AdjustInfiltration | None}, Infiltration Zones {MixingSourceZonesOnly | AllZones}
 Zone Air Mass Flow Balance Simulation, No,N/A,N/A,N/A
! <HVACSystemRootFindingAlgorithm>, Value {RegulaFalsi | Bisection | BisectionThenRegulaFalsi | RegulaFalsiThenBisection}
 HVACSystemRootFindingAlgorithm, RegulaFalsi
! <Environment:Site Atmospheric Variation>,Wind Speed Profile Exponent {},Wind Speed Profile Boundary Layer Thickness {m},Air Temperature Gradient Coefficient {K/m}
Environment:Site Atmospheric Variation,0.220,370.000,6.500000E-003
! <Surface Geometry>,Starting Corner,Vertex Input Direction,Coordinate System,Daylight Reference Point Coordinate System,Rectangular (Simple) Surface Coordinate System
 Surface Geometry,UpperLeftCorner,Counterclockwise,RelativeCoordinateSystem,RelativeCoordinateSystem,RelativeToZoneOrigin
! <Surface Heat Transfer Algorithm>, Value {CTF - ConductionTransferFunction | EMPD - MoisturePenetrationDepthConductionTransferFunction | CondFD - ConductionFiniteDifference | HAMT - CombinedHeatAndMoistureFiniteElement} - Description,Inside Surface Max Temperature Limit{C}, Surface Convection Coefficient Lower Limit {W/m2-K}, Surface Convection Coefficient Upper Limit {W/m2-K}
Surface Heat Transfer Algorithm, CTF - ConductionTransferFunction,200,0.10,1000.0
! <Shading Summary>, Number of Fixed Detached Shades, Number of Building Detached Shades, Number of Attached Shades
 Shading Summary,0,0,18
! <Zone Summary>, Number of Zones, Number of Zone Surfaces, Number of SubSurfaces
 Zone Summary,12,174,66
! <Zone Information>,Zone Name,North Axis {deg},Origin X-Coordinate {m},Origin Y-Coordinate {m},Origin Z-Coordinate {m},Centroid X-Coordinate {m},Centroid Y-Coordinate {m},Centroid Z-Coordinate {m},Type,Zone Multiplier,Zone List Multiplier,Minimum X {m},Maximum X {m},Minimum Y {m},Maximum Y {m},Minimum Z {m},Maximum Z {m},Ceiling Height {m},Volume {m3},Zone Inside Convection Algorithm {Simple-Detailed-CeilingDiffuser-TrombeWall},Zone Outside Convection Algorithm {Simple-Detailed-Tarp-MoWitt-DOE-2-BLAST}, Floor Area {m2},Exterior Gross Wall Area {m2},Exterior Net Wall Area {m2},Exterior Window Area {m2}, Number of Surfaces, Number of SubSurfaces, Number of Shading SubSurfaces,  Part of Total Building Area
 Zone Information, 01_A1,0.0,19.48,4.60,0.00,15.54,8.26,1.68,1,1,1,11.61,19.48,4.60,11.91,0.00,3.35,3.35,193.12,CeilingDiffuser,DOE-2,57.60,56.55,48.29,6.31,7,3,2,Yes
 Zone Information, 01_A2,0.0,2.46,8.26,0.00,6.52,8.32,1.68,1,1,1,2.46,11.61,4.60,11.91,0.00,3.35,3.35,208.70,TARP,DOE-2,62.25,85.84,77.06,6.83,8,4,2,Yes
 Zone Information, 01_B2,0.0,2.16,21.21,0.00,6.09,21.12,1.68,1,1,1,2.16,11.61,14.96,25.63,0.00,3.35,3.35,324.46,CeilingDiffuser,DOE-2,96.77,99.13,83.98,13.20,10,7,2,Yes
 Zone Information, 01_C1,0.0,18.92,25.63,1.26E-030,16.14,18.67,1.68,1,1,1,11.61,20.75,11.91,25.63,6.28E-031,3.35,3.35,380.95,CeilingDiffuser,DOE-2,113.62,96.74,80.17,14.63,11,8,2,Yes
 Zone Information, 02_A1,0.0,19.48,4.60,3.35,15.54,8.26,5.03,1,1,1,11.61,19.48,4.60,11.91,3.35,6.71,3.35,193.12,CeilingDiffuser,DOE-2,57.60,56.55,47.80,6.79,7,3,2,Yes
 Zone Information, 02_A2,0.0,2.46,8.26,3.35,6.52,8.32,5.03,1,1,1,2.46,11.61,4.60,11.91,3.35,6.71,3.35,208.70,TARP,DOE-2,62.25,85.84,76.33,7.56,8,4,2,Yes
 Zone Information, 02_B2,0.0,2.16,21.21,3.35,6.09,21.12,5.03,1,1,1,2.16,11.61,14.96,25.63,3.35,6.71,3.35,324.46,CeilingDiffuser,DOE-2,96.77,99.13,81.69,15.49,10,7,2,Yes
 Zone Information, 02_C1,0.0,18.92,25.63,3.35,16.14,18.67,5.03,1,1,1,11.61,20.75,11.91,25.63,3.35,6.71,3.35,380.95,CeilingDiffuser,DOE-2,113.62,96.74,77.21,17.58,11,8,2,Yes
 Zone Information, 03_A1,0.0,19.48,4.60,6.71,15.54,8.26,8.38,1,1,1,11.61,19.48,4.60,11.91,6.71,10.06,3.35,193.12,CeilingDiffuser,DOE-2,57.60,56.55,47.80,6.79,7,3,0,Yes
 Zone Information, 03_A2,0.0,2.46,8.26,6.71,6.52,8.32,8.38,1,1,1,2.46,11.61,4.60,11.91,6.71,10.06,3.35,208.70,CeilingDiffuser,DOE-2,62.25,85.84,76.33,7.56,8,4,0,Yes
 Zone Information, 03_B2,0.0,2.16,21.21,6.71,6.09,21.12,8.38,1,1,1,2.16,11.61,14.96,25.63,6.71,10.06,3.35,324.46,CeilingDiffuser,DOE-2,96.77,99.13,81.69,15.49,10,7,0,Yes
 Zone Information, 03_C1,0.0,18.92,25.63,6.71,16.14,18.67,8.38,1,1,1,11.61,20.75,11.91,25.63,6.71,10.06,3.35,380.95,CeilingDiffuser,DOE-2,113.62,96.74,77.21,17.58,11,8,2,Yes
! <Zone Internal Gains Nominal>,Zone Name, Floor Area {m2},# Occupants,Area per Occupant {m2/person},Occupant per Area {person/m2},Interior Lighting {W/m2},Electric Load {W/m2},Gas Load {W/m2},Other Load {W/m2},Hot Water Eq {W/m2},Steam Equipment {W/m2},Sum Loads per Area {W/m2},Outdoor Controlled Baseboard Heat
 Zone Internal Gains Nominal, 01_A1,57.60,1.6,37.161,2.691E-002,4.127,87.268,0.000,0.000,0.000,0.000,91.395,No
 Zone Internal Gains Nominal, 01_A2,62.25,1.6,40.158,2.490E-002,3.729,80.755,0.000,0.000,0.000,0.000,84.484,No
 Zone Internal Gains Nominal, 01_B2,96.77,2.5,39.180,2.552E-002,3.260,56.045,0.000,0.000,0.000,0.000,59.305,No
 Zone Internal Gains Nominal, 01_C1,113.62,3.4,33.516,2.984E-002,3.085,49.676,0.000,0.000,0.000,0.000,52.761,No
 Zone Internal Gains Nominal, 02_A1,57.60,1.6,37.161,2.691E-002,4.127,87.268,0.000,0.000,0.000,0.000,91.395,No
 Zone Internal Gains Nominal, 02_A2,62.25,1.6,40.158,2.490E-002,3.729,80.755,0.000,0.000,0.000,0.000,84.484,No
 Zone Internal Gains Nominal, 02_B2,96.77,2.5,39.180,2.552E-002,3.260,56.045,0.000,0.000,0.000,0.000,59.305,No
 Zone Internal Gains Nominal, 02_C1,113.62,3.4,33.516,2.984E-002,3.085,49.676,0.000,0.000,0.000,0.000,52.761,No
 Zone Internal Gains Nominal, 03_A1,57.60,1.6,37.161,2.691E-002,4.127,87.268,0.000,0.000,0.000,0.000,91.395,No
 Zone Internal Gains Nominal, 03_A2,62.25,1.6,40.158,2.490E-002,3.729,80.755,0.000,0.000,0.000,0.000,84.484,No
 Zone Internal Gains Nominal, 03_B2,96.77,2.5,39.180,2.552E-002,3.260,56.045,0.000,0.000,0.000,0.000,59.305,No
 Zone Internal Gains Nominal, 03_C1,113.62,3.4,33.516,2.984E-002,3.085,49.676,0.000,0.000,0.000,0.000,52.761,No
! <People Internal Gains Nominal>,Name,Schedule Name,Zone Name,Zone Floor Area {m2},# Zone Occupants,Number of People {},People/Floor Area {person/m2},Floor Area per person {m2/person},Fraction Radiant,Fraction Convected,Sensible Fraction Calculation,Activity level,ASHRAE 55 Warnings,Carbon Dioxide Generation Rate,Nominal Minimum Number of People,Nominal Maximum Number of People
 People Internal Gains Nominal, 01_A1 PEOPLE 1,OCCPROTOCOL,01_A1,57.60,1.6,1.6,2.691E-002,37.161,0.300,0.700,AutoCalculate,MIDRISEAPARTMENT ACTIVITYDOE,No,3.8200E-008,0,2
 People Internal Gains Nominal, 02_A1 PEOPLE 1,OCCPROTOCOL,02_A1,57.60,1.6,1.6,2.691E-002,37.161,0.300,0.700,AutoCalculate,MIDRISEAPARTMENT ACTIVITYDOE,No,3.8200E-008,0,2
 People Internal Gains Nominal, 03_A1 PEOPLE 1,OCCPROTOCOL,03_A1,57.60,1.6,1.6,2.691E-002,37.161,0.300,0.700,AutoCalculate,MIDRISEAPARTMENT ACTIVITYDOE,No,3.8200E-008,0,2
 People Internal Gains Nominal, 01_A2 PEOPLE 2,OCCPROTOCOL,01_A2,62.25,1.6,1.6,2.490E-002,40.158,0.300,0.700,AutoCalculate,MIDRISEAPARTMENT ACTIVITYDOE,No,3.8200E-008,0,2
 People Internal Gains Nominal, 02_A2 PEOPLE 2,OCCPROTOCOL,02_A2,62.25,1.6,1.6,2.490E-002,40.158,0.300,0.700,AutoCalculate,MIDRISEAPARTMENT ACTIVITYDOE,No,3.8200E-008,0,2
 People Internal Gains Nominal, 03_A2 PEOPLE 2,OCCPROTOCOL,03_A2,62.25,1.6,1.6,2.490E-002,40.158,0.300,0.700,AutoCalculate,MIDRISEAPARTMENT ACTIVITYDOE,No,3.8200E-008,0,2
 People Internal Gains Nominal, 01_B2 PEOPLE 6,OCCPROTOCOL,01_B2,96.77,2.5,2.5,2.552E-002,39.180,0.300,0.700,AutoCalculate,MIDRISEAPARTMENT ACTIVITYDOE,No,3.8200E-008,1,2
 People Internal Gains Nominal, 02_B2 PEOPLE 6,OCCPROTOCOL,02_B2,96.77,2.5,2.5,2.552E-002,39.180,0.300,0.700,AutoCalculate,MIDRISEAPARTMENT ACTIVITYDOE,No,3.8200E-008,1,2
 People Internal Gains Nominal, 03_B2 PEOPLE 6,OCCPROTOCOL,03_B2,96.77,2.5,2.5,2.552E-002,39.180,0.300,0.700,AutoCalculate,MIDRISEAPARTMENT ACTIVITYDOE,No,3.8200E-008,1,2
 People Internal Gains Nominal, 01_C1 PEOPLE 7,OCCPROTOCOL,01_C1,113.62,3.4,3.4,2.984E-002,33.516,0.300,0.700,AutoCalculate,MIDRISEAPARTMENT ACTIVITYDOE,No,3.8200E-008,1,3
 People Internal Gains Nominal, 02_C1 PEOPLE 7,OCCPROTOCOL,02_C1,113.62,3.4,3.4,2.984E-002,33.516,0.300,0.700,AutoCalculate,MIDRISEAPARTMENT ACTIVITYDOE,No,3.8200E-008,1,3
 People Internal Gains Nominal, 03_C1 PEOPLE 7,OCCPROTOCOL,03_C1,113.62,3.4,3.4,2.984E-002,33.516,0.300,0.700,AutoCalculate,MIDRISEAPARTMENT ACTIVITYDOE,No,3.8200E-008,1,3
! <Lights Internal Gains Nominal>,Name,Schedule Name,Zone Name,Zone Floor Area {m2},# Zone Occupants,Lighting Level {W},Lights/Floor Area {W/m2},Lights per person {W/person},Fraction Return Air,Fraction Radiant,Fraction Short Wave,Fraction Convected,Fraction Replaceable,End-Use Category,Nominal Minimum Lighting Level {W},Nominal Maximum Lighting Level {W}
 Lights Internal Gains Nominal, 01_A1 LIGHTS 2,MIDRISEAPARTMENT APARTMENT LIGHTDOE,01_A1,57.60,1.6,237.708,4.127,153.360,0.000,0.000,0.000,1.000,1.000,General,4.754,237.708
 Lights Internal Gains Nominal, 02_A1 LIGHTS 2,MIDRISEAPARTMENT APARTMENT LIGHTDOE,02_A1,57.60,1.6,237.708,4.127,153.360,0.000,0.000,0.000,1.000,1.000,General,4.754,237.708
 Lights Internal Gains Nominal, 03_A1 LIGHTS 2,MIDRISEAPARTMENT APARTMENT LIGHTDOE,03_A1,57.60,1.6,237.708,4.127,153.360,0.000,0.000,0.000,1.000,1.000,General,4.754,237.708
 Lights Internal Gains Nominal, 01_A2 LIGHTS 3,MIDRISEAPARTMENT APARTMENT LIGHTDOE,01_A2,62.25,1.6,232.088,3.729,149.734,0.000,0.000,0.000,1.000,1.000,General,4.642,232.088
 Lights Internal Gains Nominal, 02_A2 LIGHTS 3,MIDRISEAPARTMENT APARTMENT LIGHTDOE,02_A2,62.25,1.6,232.088,3.729,149.734,0.000,0.000,0.000,1.000,1.000,General,4.642,232.088
 Lights Internal Gains Nominal, 03_A2 LIGHTS 3,MIDRISEAPARTMENT APARTMENT LIGHTDOE,03_A2,62.25,1.6,232.088,3.729,149.734,0.000,0.000,0.000,1.000,1.000,General,4.642,232.088
 Lights Internal Gains Nominal, 01_B2 LIGHTS 7,MIDRISEAPARTMENT APARTMENT LIGHTDOE,01_B2,96.77,2.5,315.521,3.260,127.741,0.000,0.000,0.000,1.000,1.000,General,6.310,315.521
 Lights Internal Gains Nominal, 02_B2 LIGHTS 7,MIDRISEAPARTMENT APARTMENT LIGHTDOE,02_B2,96.77,2.5,315.521,3.260,127.741,0.000,0.000,0.000,1.000,1.000,General,6.310,315.521
 Lights Internal Gains Nominal, 03_B2 LIGHTS 7,MIDRISEAPARTMENT APARTMENT LIGHTDOE,03_B2,96.77,2.5,315.521,3.260,127.741,0.000,0.000,0.000,1.000,1.000,General,6.310,315.521
 Lights Internal Gains Nominal, 01_C1 LIGHTS 8,MIDRISEAPARTMENT APARTMENT LIGHTDOE,01_C1,113.62,3.4,350.512,3.085,103.396,0.000,0.000,0.000,1.000,1.000,General,7.010,350.512
 Lights Internal Gains Nominal, 02_C1 LIGHTS 8,MIDRISEAPARTMENT APARTMENT LIGHTDOE,02_C1,113.62,3.4,350.512,3.085,103.396,0.000,0.000,0.000,1.000,1.000,General,7.010,350.512
 Lights Internal Gains Nominal, 03_C1 LIGHTS 8,MIDRISEAPARTMENT APARTMENT LIGHTDOE,03_C1,113.62,3.4,350.512,3.085,103.396,0.000,0.000,0.000,1.000,1.000,General,7.010,350.512
! <ElectricEquipment Internal Gains Nominal>,Name,Schedule Name,Zone Name,Zone Floor Area {m2},# Zone Occupants,Equipment Level {W},Equipment/Floor Area {W/m2},Equipment per person {W/person},Fraction Latent,Fraction Radiant,Fraction Lost,Fraction Convected,End-Use SubCategory,Nominal Minimum Equipment Level {W},Nominal Maximum Equipment Level {W}
 ElectricEquipment Internal Gains Nominal, 01_A1 ELECTRIC EQUIPMENT 19,APARTMENTMIDRISE EQP_CLOTHESDRYER,01_A1,57.60,1.6,1699.556,29.506,1096.487,5.000E-002,0.150,0.000,0.800,General,3.399,1699.556
 ElectricEquipment Internal Gains Nominal, 02_A1 ELECTRIC EQUIPMENT 19,APARTMENTMIDRISE EQP_CLOTHESDRYER,02_A1,57.60,1.6,1699.556,29.506,1096.487,5.000E-002,0.150,0.000,0.800,General,3.399,1699.556
 ElectricEquipment Internal Gains Nominal, 03_A1 ELECTRIC EQUIPMENT 19,APARTMENTMIDRISE EQP_CLOTHESDRYER,03_A1,57.60,1.6,1699.556,29.506,1096.487,5.000E-002,0.150,0.000,0.800,General,3.399,1699.556
 ElectricEquipment Internal Gains Nominal, 01_A1 ELECTRIC EQUIPMENT 20,APARTMENTMIDRISE EQP_CLOTHESWASHER,01_A1,57.60,1.6,350.000,6.076,225.806,0.000,0.800,0.000,0.200,General,1.225,350.000
 ElectricEquipment Internal Gains Nominal, 02_A1 ELECTRIC EQUIPMENT 20,APARTMENTMIDRISE EQP_CLOTHESWASHER,02_A1,57.60,1.6,350.000,6.076,225.806,0.000,0.800,0.000,0.200,General,1.225,350.000
 ElectricEquipment Internal Gains Nominal, 03_A1 ELECTRIC EQUIPMENT 20,APARTMENTMIDRISE EQP_CLOTHESWASHER,03_A1,57.60,1.6,350.000,6.076,225.806,0.000,0.800,0.000,0.200,General,1.225,350.000
 ElectricEquipment Internal Gains Nominal, 01_A1 ELECTRIC EQUIPMENT 22,APARTMENTMIDRISE EQP_DISHWASHER,01_A1,57.60,1.6,780.000,13.542,503.226,0.150,0.600,0.000,0.250,General,2.730,780.000
 ElectricEquipment Internal Gains Nominal, 02_A1 ELECTRIC EQUIPMENT 22,APARTMENTMIDRISE EQP_DISHWASHER,02_A1,57.60,1.6,780.000,13.542,503.226,0.150,0.600,0.000,0.250,General,2.730,780.000
 ElectricEquipment Internal Gains Nominal, 03_A1 ELECTRIC EQUIPMENT 22,APARTMENTMIDRISE EQP_DISHWASHER,03_A1,57.60,1.6,780.000,13.542,503.226,0.150,0.600,0.000,0.250,General,2.730,780.000
 ElectricEquipment Internal Gains Nominal, 01_A1 ELECTRIC EQUIPMENT 23,APARTMENTMIDRISE EQP_RANGE,01_A1,57.60,1.6,250.000,4.340,161.290,0.200,0.730,0.000,7.000E-002,General,0.800,250.000
 ElectricEquipment Internal Gains Nominal, 02_A1 ELECTRIC EQUIPMENT 23,APARTMENTMIDRISE EQP_RANGE,02_A1,57.60,1.6,250.000,4.340,161.290,0.200,0.730,0.000,7.000E-002,General,0.800,250.000
 ElectricEquipment Internal Gains Nominal, 03_A1 ELECTRIC EQUIPMENT 23,APARTMENTMIDRISE EQP_RANGE,03_A1,57.60,1.6,250.000,4.340,161.290,0.200,0.730,0.000,7.000E-002,General,0.800,250.000
 ElectricEquipment Internal Gains Nominal, 01_A1 ELECTRIC EQUIPMENT 24,APARTMENTMIDRISE EQP_RANGE,01_A1,57.60,1.6,176.471,3.064,113.852,0.300,0.400,0.000,0.300,General,0.565,176.471
 ElectricEquipment Internal Gains Nominal, 02_A1 ELECTRIC EQUIPMENT 24,APARTMENTMIDRISE EQP_RANGE,02_A1,57.60,1.6,176.471,3.064,113.852,0.300,0.400,0.000,0.300,General,0.565,176.471
 ElectricEquipment Internal Gains Nominal, 03_A1 ELECTRIC EQUIPMENT 24,APARTMENTMIDRISE EQP_RANGE,03_A1,57.60,1.6,176.471,3.064,113.852,0.300,0.400,0.000,0.300,General,0.565,176.471
 ElectricEquipment Internal Gains Nominal, 01_A1 ELECTRIC EQUIPMENT 25,APARTMENTMIDRISE EQP_REFRIGERATOR,01_A1,57.60,1.6,1200.000,20.833,774.194,0.000,1.000,0.000,0.000,General,43.476,1200.000
 ElectricEquipment Internal Gains Nominal, 02_A1 ELECTRIC EQUIPMENT 25,APARTMENTMIDRISE EQP_REFRIGERATOR,02_A1,57.60,1.6,1200.000,20.833,774.194,0.000,1.000,0.000,0.000,General,43.476,1200.000
 ElectricEquipment Internal Gains Nominal, 03_A1 ELECTRIC EQUIPMENT 25,APARTMENTMIDRISE EQP_REFRIGERATOR,03_A1,57.60,1.6,1200.000,20.833,774.194,0.000,1.000,0.000,0.000,General,43.476,1200.000
 ElectricEquipment Internal Gains Nominal, 01_A1 ELECTRIC EQUIPMENT 26,APARTMENTMIDRISE EQP_APT_SCH,01_A1,57.60,1.6,350.000,6.076,225.806,0.200,0.730,0.000,7.000E-002,General,8.540,350.000
 ElectricEquipment Internal Gains Nominal, 02_A1 ELECTRIC EQUIPMENT 26,APARTMENTMIDRISE EQP_APT_SCH,02_A1,57.60,1.6,350.000,6.076,225.806,0.200,0.730,0.000,7.000E-002,General,8.540,350.000
 ElectricEquipment Internal Gains Nominal, 03_A1 ELECTRIC EQUIPMENT 26,APARTMENTMIDRISE EQP_APT_SCH,03_A1,57.60,1.6,350.000,6.076,225.806,0.200,0.730,0.000,7.000E-002,General,8.540,350.000
 ElectricEquipment Internal Gains Nominal, 01_A1 ELECTRIC EQUIPMENT 3,APARTMENTMIDRISE EQP_RANGE,01_A1,57.60,1.6,220.588,3.830,142.315,0.300,0.400,0.000,0.300,General,0.706,220.588
 ElectricEquipment Internal Gains Nominal, 02_A1 ELECTRIC EQUIPMENT 3,APARTMENTMIDRISE EQP_RANGE,02_A1,57.60,1.6,220.588,3.830,142.315,0.300,0.400,0.000,0.300,General,0.706,220.588
 ElectricEquipment Internal Gains Nominal, 03_A1 ELECTRIC EQUIPMENT 3,APARTMENTMIDRISE EQP_RANGE,03_A1,57.60,1.6,220.588,3.830,142.315,0.300,0.400,0.000,0.300,General,0.706,220.588
 ElectricEquipment Internal Gains Nominal, 01_A2 ELECTRIC EQUIPMENT 13,APARTMENTMIDRISE EQP_RANGE,01_A2,62.25,1.6,176.471,2.835,113.852,0.300,0.400,0.000,0.300,General,0.565,176.471
 ElectricEquipment Internal Gains Nominal, 02_A2 ELECTRIC EQUIPMENT 13,APARTMENTMIDRISE EQP_RANGE,02_A2,62.25,1.6,176.471,2.835,113.852,0.300,0.400,0.000,0.300,General,0.565,176.471
 ElectricEquipment Internal Gains Nominal, 03_A2 ELECTRIC EQUIPMENT 13,APARTMENTMIDRISE EQP_RANGE,03_A2,62.25,1.6,176.471,2.835,113.852,0.300,0.400,0.000,0.300,General,0.565,176.471
 ElectricEquipment Internal Gains Nominal, 01_A2 ELECTRIC EQUIPMENT 27,APARTMENTMIDRISE EQP_CLOTHESDRYER,01_A2,62.25,1.6,1699.556,27.304,1096.487,5.000E-002,0.150,0.000,0.800,General,3.399,1699.556
 ElectricEquipment Internal Gains Nominal, 02_A2 ELECTRIC EQUIPMENT 27,APARTMENTMIDRISE EQP_CLOTHESDRYER,02_A2,62.25,1.6,1699.556,27.304,1096.487,5.000E-002,0.150,0.000,0.800,General,3.399,1699.556
 ElectricEquipment Internal Gains Nominal, 03_A2 ELECTRIC EQUIPMENT 27,APARTMENTMIDRISE EQP_CLOTHESDRYER,03_A2,62.25,1.6,1699.556,27.304,1096.487,5.000E-002,0.150,0.000,0.800,General,3.399,1699.556
 ElectricEquipment Internal Gains Nominal, 01_A2 ELECTRIC EQUIPMENT 28,APARTMENTMIDRISE EQP_CLOTHESWASHER,01_A2,62.25,1.6,350.000,5.623,225.806,0.000,0.800,0.000,0.200,General,1.225,350.000
 ElectricEquipment Internal Gains Nominal, 02_A2 ELECTRIC EQUIPMENT 28,APARTMENTMIDRISE EQP_CLOTHESWASHER,02_A2,62.25,1.6,350.000,5.623,225.806,0.000,0.800,0.000,0.200,General,1.225,350.000
 ElectricEquipment Internal Gains Nominal, 03_A2 ELECTRIC EQUIPMENT 28,APARTMENTMIDRISE EQP_CLOTHESWASHER,03_A2,62.25,1.6,350.000,5.623,225.806,0.000,0.800,0.000,0.200,General,1.225,350.000
 ElectricEquipment Internal Gains Nominal, 01_A2 ELECTRIC EQUIPMENT 30,APARTMENTMIDRISE EQP_DISHWASHER,01_A2,62.25,1.6,780.000,12.531,503.226,0.150,0.600,0.000,0.250,General,2.730,780.000
 ElectricEquipment Internal Gains Nominal, 02_A2 ELECTRIC EQUIPMENT 30,APARTMENTMIDRISE EQP_DISHWASHER,02_A2,62.25,1.6,780.000,12.531,503.226,0.150,0.600,0.000,0.250,General,2.730,780.000
 ElectricEquipment Internal Gains Nominal, 03_A2 ELECTRIC EQUIPMENT 30,APARTMENTMIDRISE EQP_DISHWASHER,03_A2,62.25,1.6,780.000,12.531,503.226,0.150,0.600,0.000,0.250,General,2.730,780.000
 ElectricEquipment Internal Gains Nominal, 01_A2 ELECTRIC EQUIPMENT 31,APARTMENTMIDRISE EQP_RANGE,01_A2,62.25,1.6,250.000,4.016,161.290,0.200,0.730,0.000,7.000E-002,General,0.800,250.000
 ElectricEquipment Internal Gains Nominal, 02_A2 ELECTRIC EQUIPMENT 31,APARTMENTMIDRISE EQP_RANGE,02_A2,62.25,1.6,250.000,4.016,161.290,0.200,0.730,0.000,7.000E-002,General,0.800,250.000
 ElectricEquipment Internal Gains Nominal, 03_A2 ELECTRIC EQUIPMENT 31,APARTMENTMIDRISE EQP_RANGE,03_A2,62.25,1.6,250.000,4.016,161.290,0.200,0.730,0.000,7.000E-002,General,0.800,250.000
 ElectricEquipment Internal Gains Nominal, 01_A2 ELECTRIC EQUIPMENT 32,APARTMENTMIDRISE EQP_RANGE,01_A2,62.25,1.6,220.588,3.544,142.315,0.300,0.400,0.000,0.300,General,0.706,220.588
 ElectricEquipment Internal Gains Nominal, 02_A2 ELECTRIC EQUIPMENT 32,APARTMENTMIDRISE EQP_RANGE,02_A2,62.25,1.6,220.588,3.544,142.315,0.300,0.400,0.000,0.300,General,0.706,220.588
 ElectricEquipment Internal Gains Nominal, 03_A2 ELECTRIC EQUIPMENT 32,APARTMENTMIDRISE EQP_RANGE,03_A2,62.25,1.6,220.588,3.544,142.315,0.300,0.400,0.000,0.300,General,0.706,220.588
 ElectricEquipment Internal Gains Nominal, 01_A2 ELECTRIC EQUIPMENT 33,APARTMENTMIDRISE EQP_REFRIGERATOR,01_A2,62.25,1.6,1200.000,19.279,774.194,0.000,1.000,0.000,0.000,General,43.476,1200.000
 ElectricEquipment Internal Gains Nominal, 02_A2 ELECTRIC EQUIPMENT 33,APARTMENTMIDRISE EQP_REFRIGERATOR,02_A2,62.25,1.6,1200.000,19.279,774.194,0.000,1.000,0.000,0.000,General,43.476,1200.000
 ElectricEquipment Internal Gains Nominal, 03_A2 ELECTRIC EQUIPMENT 33,APARTMENTMIDRISE EQP_REFRIGERATOR,03_A2,62.25,1.6,1200.000,19.279,774.194,0.000,1.000,0.000,0.000,General,43.476,1200.000
 ElectricEquipment Internal Gains Nominal, 01_A2 ELECTRIC EQUIPMENT 34,APARTMENTMIDRISE EQP_APT_SCH,01_A2,62.25,1.6,350.000,5.623,225.806,0.200,0.730,0.000,7.000E-002,General,8.540,350.000
 ElectricEquipment Internal Gains Nominal, 02_A2 ELECTRIC EQUIPMENT 34,APARTMENTMIDRISE EQP_APT_SCH,02_A2,62.25,1.6,350.000,5.623,225.806,0.200,0.730,0.000,7.000E-002,General,8.540,350.000
 ElectricEquipment Internal Gains Nominal, 03_A2 ELECTRIC EQUIPMENT 34,APARTMENTMIDRISE EQP_APT_SCH,03_A2,62.25,1.6,350.000,5.623,225.806,0.200,0.730,0.000,7.000E-002,General,8.540,350.000
 ElectricEquipment Internal Gains Nominal, 01_B2 ELECTRIC EQUIPMENT 45,APARTMENTMIDRISE EQP_RANGE,01_B2,96.77,2.5,397.059,4.103,160.753,0.300,0.400,0.000,0.300,General,1.271,397.059
 ElectricEquipment Internal Gains Nominal, 02_B2 ELECTRIC EQUIPMENT 45,APARTMENTMIDRISE EQP_RANGE,02_B2,96.77,2.5,397.059,4.103,160.753,0.300,0.400,0.000,0.300,General,1.271,397.059
 ElectricEquipment Internal Gains Nominal, 03_B2 ELECTRIC EQUIPMENT 45,APARTMENTMIDRISE EQP_RANGE,03_B2,96.77,2.5,397.059,4.103,160.753,0.300,0.400,0.000,0.300,General,1.271,397.059
 ElectricEquipment Internal Gains Nominal, 01_B2 ELECTRIC EQUIPMENT 60,APARTMENTMIDRISE EQP_CLOTHESDRYER,01_B2,96.77,2.5,1699.556,17.562,688.079,5.000E-002,0.150,0.000,0.800,General,3.399,1699.556
 ElectricEquipment Internal Gains Nominal, 02_B2 ELECTRIC EQUIPMENT 60,APARTMENTMIDRISE EQP_CLOTHESDRYER,02_B2,96.77,2.5,1699.556,17.562,688.079,5.000E-002,0.150,0.000,0.800,General,3.399,1699.556
 ElectricEquipment Internal Gains Nominal, 03_B2 ELECTRIC EQUIPMENT 60,APARTMENTMIDRISE EQP_CLOTHESDRYER,03_B2,96.77,2.5,1699.556,17.562,688.079,5.000E-002,0.150,0.000,0.800,General,3.399,1699.556
 ElectricEquipment Internal Gains Nominal, 01_B2 ELECTRIC EQUIPMENT 61,APARTMENTMIDRISE EQP_CLOTHESWASHER,01_B2,96.77,2.5,350.000,3.617,141.700,0.000,0.800,0.000,0.200,General,1.225,350.000
 ElectricEquipment Internal Gains Nominal, 02_B2 ELECTRIC EQUIPMENT 61,APARTMENTMIDRISE EQP_CLOTHESWASHER,02_B2,96.77,2.5,350.000,3.617,141.700,0.000,0.800,0.000,0.200,General,1.225,350.000
 ElectricEquipment Internal Gains Nominal, 03_B2 ELECTRIC EQUIPMENT 61,APARTMENTMIDRISE EQP_CLOTHESWASHER,03_B2,96.77,2.5,350.000,3.617,141.700,0.000,0.800,0.000,0.200,General,1.225,350.000
 ElectricEquipment Internal Gains Nominal, 01_B2 ELECTRIC EQUIPMENT 63,APARTMENTMIDRISE EQP_DISHWASHER,01_B2,96.77,2.5,780.000,8.060,315.789,0.150,0.600,0.000,0.250,General,2.730,780.000
 ElectricEquipment Internal Gains Nominal, 02_B2 ELECTRIC EQUIPMENT 63,APARTMENTMIDRISE EQP_DISHWASHER,02_B2,96.77,2.5,780.000,8.060,315.789,0.150,0.600,0.000,0.250,General,2.730,780.000
 ElectricEquipment Internal Gains Nominal, 03_B2 ELECTRIC EQUIPMENT 63,APARTMENTMIDRISE EQP_DISHWASHER,03_B2,96.77,2.5,780.000,8.060,315.789,0.150,0.600,0.000,0.250,General,2.730,780.000
 ElectricEquipment Internal Gains Nominal, 01_B2 ELECTRIC EQUIPMENT 64,APARTMENTMIDRISE EQP_RANGE,01_B2,96.77,2.5,250.000,2.583,101.215,0.200,0.730,0.000,7.000E-002,General,0.800,250.000
 ElectricEquipment Internal Gains Nominal, 02_B2 ELECTRIC EQUIPMENT 64,APARTMENTMIDRISE EQP_RANGE,02_B2,96.77,2.5,250.000,2.583,101.215,0.200,0.730,0.000,7.000E-002,General,0.800,250.000
 ElectricEquipment Internal Gains Nominal, 03_B2 ELECTRIC EQUIPMENT 64,APARTMENTMIDRISE EQP_RANGE,03_B2,96.77,2.5,250.000,2.583,101.215,0.200,0.730,0.000,7.000E-002,General,0.800,250.000
 ElectricEquipment Internal Gains Nominal, 01_B2 ELECTRIC EQUIPMENT 65,APARTMENTMIDRISE EQP_RANGE,01_B2,96.77,2.5,220.588,2.279,89.307,0.300,0.400,0.000,0.300,General,0.706,220.588
 ElectricEquipment Internal Gains Nominal, 02_B2 ELECTRIC EQUIPMENT 65,APARTMENTMIDRISE EQP_RANGE,02_B2,96.77,2.5,220.588,2.279,89.307,0.300,0.400,0.000,0.300,General,0.706,220.588
 ElectricEquipment Internal Gains Nominal, 03_B2 ELECTRIC EQUIPMENT 65,APARTMENTMIDRISE EQP_RANGE,03_B2,96.77,2.5,220.588,2.279,89.307,0.300,0.400,0.000,0.300,General,0.706,220.588
 ElectricEquipment Internal Gains Nominal, 01_B2 ELECTRIC EQUIPMENT 66,APARTMENTMIDRISE EQP_RANGE,01_B2,96.77,2.5,176.471,1.824,71.446,0.300,0.400,0.000,0.300,General,0.565,176.471
 ElectricEquipment Internal Gains Nominal, 02_B2 ELECTRIC EQUIPMENT 66,APARTMENTMIDRISE EQP_RANGE,02_B2,96.77,2.5,176.471,1.824,71.446,0.300,0.400,0.000,0.300,General,0.565,176.471
 ElectricEquipment Internal Gains Nominal, 03_B2 ELECTRIC EQUIPMENT 66,APARTMENTMIDRISE EQP_RANGE,03_B2,96.77,2.5,176.471,1.824,71.446,0.300,0.400,0.000,0.300,General,0.565,176.471
 ElectricEquipment Internal Gains Nominal, 01_B2 ELECTRIC EQUIPMENT 67,APARTMENTMIDRISE EQP_REFRIGERATOR,01_B2,96.77,2.5,1200.000,12.400,485.830,0.000,1.000,0.000,0.000,General,43.476,1200.000
 ElectricEquipment Internal Gains Nominal, 02_B2 ELECTRIC EQUIPMENT 67,APARTMENTMIDRISE EQP_REFRIGERATOR,02_B2,96.77,2.5,1200.000,12.400,485.830,0.000,1.000,0.000,0.000,General,43.476,1200.000
 ElectricEquipment Internal Gains Nominal, 03_B2 ELECTRIC EQUIPMENT 67,APARTMENTMIDRISE EQP_REFRIGERATOR,03_B2,96.77,2.5,1200.000,12.400,485.830,0.000,1.000,0.000,0.000,General,43.476,1200.000
 ElectricEquipment Internal Gains Nominal, 01_B2 ELECTRIC EQUIPMENT 68,APARTMENTMIDRISE EQP_APT_SCH,01_B2,96.77,2.5,350.000,3.617,141.700,0.200,0.730,0.000,7.000E-002,General,8.540,350.000
 ElectricEquipment Internal Gains Nominal, 02_B2 ELECTRIC EQUIPMENT 68,APARTMENTMIDRISE EQP_APT_SCH,02_B2,96.77,2.5,350.000,3.617,141.700,0.200,0.730,0.000,7.000E-002,General,8.540,350.000
 ElectricEquipment Internal Gains Nominal, 03_B2 ELECTRIC EQUIPMENT 68,APARTMENTMIDRISE EQP_APT_SCH,03_B2,96.77,2.5,350.000,3.617,141.700,0.200,0.730,0.000,7.000E-002,General,8.540,350.000
 ElectricEquipment Internal Gains Nominal, 01_C1 ELECTRIC EQUIPMENT 1,APARTMENTMIDRISE EQP_CLOTHESDRYER,01_C1,113.62,3.4,1699.556,14.958,501.344,5.000E-002,0.150,0.000,0.800,General,3.399,1699.556
 ElectricEquipment Internal Gains Nominal, 02_C1 ELECTRIC EQUIPMENT 1,APARTMENTMIDRISE EQP_CLOTHESDRYER,02_C1,113.62,3.4,1699.556,14.958,501.344,5.000E-002,0.150,0.000,0.800,General,3.399,1699.556
 ElectricEquipment Internal Gains Nominal, 03_C1 ELECTRIC EQUIPMENT 1,APARTMENTMIDRISE EQP_CLOTHESDRYER,03_C1,113.62,3.4,1699.556,14.958,501.344,5.000E-002,0.150,0.000,0.800,General,3.399,1699.556
 ElectricEquipment Internal Gains Nominal, 01_C1 ELECTRIC EQUIPMENT 10,APARTMENTMIDRISE EQP_RANGE,01_C1,113.62,3.4,397.059,3.495,117.126,0.300,0.400,0.000,0.300,General,1.271,397.059
 ElectricEquipment Internal Gains Nominal, 02_C1 ELECTRIC EQUIPMENT 10,APARTMENTMIDRISE EQP_RANGE,02_C1,113.62,3.4,397.059,3.495,117.126,0.300,0.400,0.000,0.300,General,1.271,397.059
 ElectricEquipment Internal Gains Nominal, 03_C1 ELECTRIC EQUIPMENT 10,APARTMENTMIDRISE EQP_RANGE,03_C1,113.62,3.4,397.059,3.495,117.126,0.300,0.400,0.000,0.300,General,1.271,397.059
 ElectricEquipment Internal Gains Nominal, 01_C1 ELECTRIC EQUIPMENT 2,APARTMENTMIDRISE EQP_CLOTHESWASHER,01_C1,113.62,3.4,350.000,3.080,103.245,0.000,0.800,0.000,0.200,General,1.225,350.000
 ElectricEquipment Internal Gains Nominal, 02_C1 ELECTRIC EQUIPMENT 2,APARTMENTMIDRISE EQP_CLOTHESWASHER,02_C1,113.62,3.4,350.000,3.080,103.245,0.000,0.800,0.000,0.200,General,1.225,350.000
 ElectricEquipment Internal Gains Nominal, 03_C1 ELECTRIC EQUIPMENT 2,APARTMENTMIDRISE EQP_CLOTHESWASHER,03_C1,113.62,3.4,350.000,3.080,103.245,0.000,0.800,0.000,0.200,General,1.225,350.000
 ElectricEquipment Internal Gains Nominal, 01_C1 ELECTRIC EQUIPMENT 4,APARTMENTMIDRISE EQP_DISHWASHER,01_C1,113.62,3.4,780.000,6.865,230.088,0.150,0.600,0.000,0.250,General,2.730,780.000
 ElectricEquipment Internal Gains Nominal, 02_C1 ELECTRIC EQUIPMENT 4,APARTMENTMIDRISE EQP_DISHWASHER,02_C1,113.62,3.4,780.000,6.865,230.088,0.150,0.600,0.000,0.250,General,2.730,780.000
 ElectricEquipment Internal Gains Nominal, 03_C1 ELECTRIC EQUIPMENT 4,APARTMENTMIDRISE EQP_DISHWASHER,03_C1,113.62,3.4,780.000,6.865,230.088,0.150,0.600,0.000,0.250,General,2.730,780.000
 ElectricEquipment Internal Gains Nominal, 01_C1 ELECTRIC EQUIPMENT 5,APARTMENTMIDRISE EQP_RANGE,01_C1,113.62,3.4,220.588,1.941,65.070,0.300,0.400,0.000,0.300,General,0.706,220.588
 ElectricEquipment Internal Gains Nominal, 02_C1 ELECTRIC EQUIPMENT 5,APARTMENTMIDRISE EQP_RANGE,02_C1,113.62,3.4,220.588,1.941,65.070,0.300,0.400,0.000,0.300,General,0.706,220.588
 ElectricEquipment Internal Gains Nominal, 03_C1 ELECTRIC EQUIPMENT 5,APARTMENTMIDRISE EQP_RANGE,03_C1,113.62,3.4,220.588,1.941,65.070,0.300,0.400,0.000,0.300,General,0.706,220.588
 ElectricEquipment Internal Gains Nominal, 01_C1 ELECTRIC EQUIPMENT 53,APARTMENTMIDRISE EQP_RANGE,01_C1,113.62,3.4,220.588,1.941,65.070,0.300,0.400,0.000,0.300,General,0.706,220.588
 ElectricEquipment Internal Gains Nominal, 02_C1 ELECTRIC EQUIPMENT 53,APARTMENTMIDRISE EQP_RANGE,02_C1,113.62,3.4,220.588,1.941,65.070,0.300,0.400,0.000,0.300,General,0.706,220.588
 ElectricEquipment Internal Gains Nominal, 03_C1 ELECTRIC EQUIPMENT 53,APARTMENTMIDRISE EQP_RANGE,03_C1,113.62,3.4,220.588,1.941,65.070,0.300,0.400,0.000,0.300,General,0.706,220.588
 ElectricEquipment Internal Gains Nominal, 01_C1 ELECTRIC EQUIPMENT 6,APARTMENTMIDRISE EQP_RANGE,01_C1,113.62,3.4,250.000,2.200,73.746,0.200,0.730,0.000,7.000E-002,General,0.800,250.000
 ElectricEquipment Internal Gains Nominal, 02_C1 ELECTRIC EQUIPMENT 6,APARTMENTMIDRISE EQP_RANGE,02_C1,113.62,3.4,250.000,2.200,73.746,0.200,0.730,0.000,7.000E-002,General,0.800,250.000
 ElectricEquipment Internal Gains Nominal, 03_C1 ELECTRIC EQUIPMENT 6,APARTMENTMIDRISE EQP_RANGE,03_C1,113.62,3.4,250.000,2.200,73.746,0.200,0.730,0.000,7.000E-002,General,0.800,250.000
 ElectricEquipment Internal Gains Nominal, 01_C1 ELECTRIC EQUIPMENT 7,APARTMENTMIDRISE EQP_RANGE,01_C1,113.62,3.4,176.471,1.553,52.056,0.300,0.400,0.000,0.300,General,0.565,176.471
 ElectricEquipment Internal Gains Nominal, 02_C1 ELECTRIC EQUIPMENT 7,APARTMENTMIDRISE EQP_RANGE,02_C1,113.62,3.4,176.471,1.553,52.056,0.300,0.400,0.000,0.300,General,0.565,176.471
 ElectricEquipment Internal Gains Nominal, 03_C1 ELECTRIC EQUIPMENT 7,APARTMENTMIDRISE EQP_RANGE,03_C1,113.62,3.4,176.471,1.553,52.056,0.300,0.400,0.000,0.300,General,0.565,176.471
 ElectricEquipment Internal Gains Nominal, 01_C1 ELECTRIC EQUIPMENT 8,APARTMENTMIDRISE EQP_REFRIGERATOR,01_C1,113.62,3.4,1200.000,10.561,353.982,0.000,1.000,0.000,0.000,General,43.476,1200.000
 ElectricEquipment Internal Gains Nominal, 02_C1 ELECTRIC EQUIPMENT 8,APARTMENTMIDRISE EQP_REFRIGERATOR,02_C1,113.62,3.4,1200.000,10.561,353.982,0.000,1.000,0.000,0.000,General,43.476,1200.000
 ElectricEquipment Internal Gains Nominal, 03_C1 ELECTRIC EQUIPMENT 8,APARTMENTMIDRISE EQP_REFRIGERATOR,03_C1,113.62,3.4,1200.000,10.561,353.982,0.000,1.000,0.000,0.000,General,43.476,1200.000
 ElectricEquipment Internal Gains Nominal, 01_C1 ELECTRIC EQUIPMENT 9,APARTMENTMIDRISE EQP_APT_SCH,01_C1,113.62,3.4,350.000,3.080,103.245,0.200,0.730,0.000,7.000E-002,General,8.540,350.000
 ElectricEquipment Internal Gains Nominal, 02_C1 ELECTRIC EQUIPMENT 9,APARTMENTMIDRISE EQP_APT_SCH,02_C1,113.62,3.4,350.000,3.080,103.245,0.200,0.730,0.000,7.000E-002,General,8.540,350.000
 ElectricEquipment Internal Gains Nominal, 03_C1 ELECTRIC EQUIPMENT 9,APARTMENTMIDRISE EQP_APT_SCH,03_C1,113.62,3.4,350.000,3.080,103.245,0.200,0.730,0.000,7.000E-002,General,8.540,350.000
! <Shadowing/Sun Position Calculations Annual Simulations>, Calculation Method, Value {days}, Allowable Number Figures in Shadow Overlap {}, Polygon Clipping Algorithm, Sky Diffuse Modeling Algorithm, External Shading Calculation Method, Output External Shading Calculation Results, Disable Self-Shading Within Shading Zone Groups, Disable Self-Shading From Shading Zone Groups to Other Zones
Shadowing/Sun Position Calculations Annual Simulations,AverageOverDaysInFrequency,20,15000,SutherlandHodgman,SimpleSkyDiffuseModeling,InternalCalculation,No,No,No
! <RoomAir Model>, Zone Name, Mixing/Mundt/UCSDDV/UCSDCV/UCSDUFI/UCSDUFE/User Defined
RoomAir Model,01_A1,Mixing/Well-Stirred
RoomAir Model,01_A2,Mixing/Well-Stirred
RoomAir Model,01_B2,Mixing/Well-Stirred
RoomAir Model,01_C1,Mixing/Well-Stirred
RoomAir Model,02_A1,Mixing/Well-Stirred
RoomAir Model,02_A2,Mixing/Well-Stirred
RoomAir Model,02_B2,Mixing/Well-Stirred
RoomAir Model,02_C1,Mixing/Well-Stirred
RoomAir Model,03_A1,Mixing/Well-Stirred
RoomAir Model,03_A2,Mixing/Well-Stirred
RoomAir Model,03_B2,Mixing/Well-Stirred
RoomAir Model,03_C1,Mixing/Well-Stirred
! <AirflowNetwork Model:Control>, No Multizone or Distribution/Multizone with Distribution/Multizone without Distribution/Multizone with Distribution only during Fan Operation
AirflowNetwork Model:Control,NoMultizoneOrDistribution
! <Zone Volume Capacitance Multiplier>, Sensible Heat Capacity Multiplier, Moisture Capacity Multiplier, Carbon Dioxide Capacity Multiplier, Generic Contaminant Capacity Multiplier
Zone Volume Capacitance Multiplier,   1.000 ,   1.000,   1.000,   1.000
! <Zone Sizing DOAS Inputs>, Zone Name, DOAS Design Control Strategy, DOAS Design Low Setpoint Temperature {C}, DOAS Design High Setpoint Temperature {C} 
 Zone Sizing DOAS Inputs, 01_A1, NeutralSupplyAir, 21.100, 23.900
! <Load Timesteps in Zone Design Calculation Averaging Window>, Value
 Load Timesteps in Zone Design Calculation Averaging Window,    6
! <Heating Sizing Factor Information>, Sizing Factor ID, Value
 Heating Sizing Factor Information, Global,   1.2500    
 Heating Sizing Factor Information, Zone 01_A1,   1.2500    
 Heating Sizing Factor Information, Zone 01_A2,   1.2500    
 Heating Sizing Factor Information, Zone 01_B2,   1.2500    
 Heating Sizing Factor Information, Zone 01_C1,   1.2500    
 Heating Sizing Factor Information, Zone 02_A1,   1.2500    
 Heating Sizing Factor Information, Zone 02_A2,   1.2500    
 Heating Sizing Factor Information, Zone 02_B2,   1.2500    
 Heating Sizing Factor Information, Zone 02_C1,   1.2500    
 Heating Sizing Factor Information, Zone 03_A1,   1.2500    
 Heating Sizing Factor Information, Zone 03_A2,   1.2500    
 Heating Sizing Factor Information, Zone 03_B2,   1.2500    
 Heating Sizing Factor Information, Zone 03_C1,   1.2500    
! <Cooling Sizing Factor Information>, Sizing Factor ID, Value
 Cooling Sizing Factor Information, Global,   1.1500    
 Cooling Sizing Factor Information, Zone 01_A1,   1.1500    
 Cooling Sizing Factor Information, Zone 01_A2,   1.1500    
 Cooling Sizing Factor Information, Zone 01_B2,   1.1500    
 Cooling Sizing Factor Information, Zone 01_C1,   1.1500    
 Cooling Sizing Factor Information, Zone 02_A1,   1.1500    
 Cooling Sizing Factor Information, Zone 02_A2,   1.1500    
 Cooling Sizing Factor Information, Zone 02_B2,   1.1500    
 Cooling Sizing Factor Information, Zone 02_C1,   1.1500    
 Cooling Sizing Factor Information, Zone 03_A1,   1.1500    
 Cooling Sizing Factor Information, Zone 03_A2,   1.1500    
 Cooling Sizing Factor Information, Zone 03_B2,   1.1500    
 Cooling Sizing Factor Information, Zone 03_C1,   1.1500    
! <Zone Sizing Information>, Zone Name, Load Type, Calc Des Load {W}, User Des Load {W}, Calc Des Air Flow Rate {m3/s}, User Des Air Flow Rate {m3/s}, Design Day Name, Date/Time of Peak, Temperature at Peak {C}, Humidity Ratio at Peak {kgWater/kgDryAir}, Floor Area {m2}, # Occupants, Calc Outdoor Air Flow Rate {m3/s}, Calc DOAS Heat Addition Rate {W}
 Zone Sizing Information, 01_A1, Cooling, 2786.01525, 3203.91754, 0.16317, 0.18764, ADAKNASANNCLG.4CONDNSDBMWB, 8/21 19:00:00, 13.48900, 8.14665E-003, 57.59988, 1.55000, 2.35974E-002, -67.37688
 Zone Sizing Information, 01_A1, Heating, 0.00000, 0.00000, 0.00000, 0.32470, ADAKNASANNHTG99.6CONDNSDB, , -6.40000, 2.19570E-003, 57.59988, 1.55000, 2.35974E-002, -66.64486
 Zone Sizing Information, 01_A2, Cooling, 3484.46329, 4007.13279, 0.20413, 0.23475, ADAKNASANNCLG.4CONDNSDBMWB, 8/21 19:00:00, 13.48900, 8.14665E-003, 62.24504, 1.55000, 2.35974E-002, 0.00000
 Zone Sizing Information, 01_A2, Heating, 0.00000, 0.00000, 0.00000, 0.32470, ADAKNASANNHTG99.6CONDNSDB, , -6.40000, 2.19570E-003, 62.24504, 1.55000, 2.35974E-002, 0.00000
 Zone Sizing Information, 01_B2, Cooling, 3544.92063, 4076.65873, 0.20766, 0.23881, ADAKNASANNCLG.4CONDNSDBMWB, 8/21 19:00:00, 13.48900, 8.14665E-003, 96.77400, 2.47000, 2.35974E-002, 0.00000
 Zone Sizing Information, 01_B2, Heating, 0.00000, 0.00000, 0.00000, 0.32470, ADAKNASANNHTG99.6CONDNSDB, , -6.40000, 2.19570E-003, 96.77400, 2.47000, 2.35974E-002, 0.00000
 Zone Sizing Information, 01_C1, Cooling, 2608.76961, 3000.08505, 0.15282, 0.17574, ADAKNASANNCLG.4CONDNSDBMWB, 8/21 19:00:00, 13.48900, 8.14665E-003, 113.62042, 3.39000, 2.35974E-002, 0.00000
 Zone Sizing Information, 01_C1, Heating, 0.00000, 0.00000, 0.00000, 0.32470, ADAKNASANNHTG99.6CONDNSDB, , -6.40000, 2.19570E-003, 113.62042, 3.39000, 2.35974E-002, 0.00000
 Zone Sizing Information, 02_A1, Cooling, 4330.90833, 4980.54458, 0.25371, 0.29177, ADAKNASANNCLG.4CONDNSDBMWB, 8/21 19:00:00, 13.48900, 8.14665E-003, 57.59988, 1.55000, 2.35974E-002, 0.00000
 Zone Sizing Information, 02_A1, Heating, 0.00000, 0.00000, 0.00000, 0.32470, ADAKNASANNHTG99.6CONDNSDB, , -6.40000, 2.19570E-003, 57.59988, 1.55000, 2.35974E-002, 0.00000
 Zone Sizing Information, 02_A2, Cooling, 5180.13698, 5957.15753, 0.30346, 0.34898, ADAKNASANNCLG.4CONDNSDBMWB, 8/21 19:00:00, 13.48900, 8.14665E-003, 62.24504, 1.55000, 2.35974E-002, 0.00000
 Zone Sizing Information, 02_A2, Heating, 0.00000, 0.00000, 0.00000, 0.32470, ADAKNASANNHTG99.6CONDNSDB, , -6.40000, 2.19570E-003, 62.24504, 1.55000, 2.35974E-002, 0.00000
 Zone Sizing Information, 02_B2, Cooling, 5827.59367, 6701.73272, 0.34137, 0.39258, ADAKNASANNCLG.4CONDNSDBMWB, 8/21 19:00:00, 13.48900, 8.14665E-003, 96.77400, 2.47000, 2.35974E-002, 0.00000
 Zone Sizing Information, 02_B2, Heating, 0.00000, 0.00000, 0.00000, 0.32470, ADAKNASANNHTG99.6CONDNSDB, , -6.40000, 2.19570E-003, 96.77400, 2.47000, 2.35974E-002, 0.00000
 Zone Sizing Information, 02_C1, Cooling, 5120.84356, 5888.97010, 0.29997, 0.34496, ADAKNASANNCLG.4CONDNSDBMWB, 8/21 19:00:00, 13.48900, 8.14665E-003, 113.62042, 3.39000, 2.35974E-002, 0.00000
 Zone Sizing Information, 02_C1, Heating, 0.00000, 0.00000, 0.00000, 0.32470, ADAKNASANNHTG99.6CONDNSDB, , -6.40000, 2.19570E-003, 113.62042, 3.39000, 2.35974E-002, 0.00000
 Zone Sizing Information, 03_A1, Cooling, 4514.89077, 5192.12438, 0.26449, 0.30417, ADAKNASANNCLG.4CONDNSDBMWB, 8/21 19:00:00, 13.48900, 8.14665E-003, 57.59988, 1.55000, 2.35974E-002, 0.00000
 Zone Sizing Information, 03_A1, Heating, 0.00000, 0.00000, 0.00000, 0.32470, ADAKNASANNHTG99.6CONDNSDB, , -6.40000, 2.19570E-003, 57.59988, 1.55000, 2.35974E-002, 0.00000
 Zone Sizing Information, 03_A2, Cooling, 5420.15556, 6233.17889, 0.31752, 0.36514, ADAKNASANNCLG.4CONDNSDBMWB, 8/21 19:00:00, 13.48900, 8.14665E-003, 62.24504, 1.55000, 2.35974E-002, 0.00000
 Zone Sizing Information, 03_A2, Heating, 0.00000, 0.00000, 0.00000, 0.32470, ADAKNASANNHTG99.6CONDNSDB, , -6.40000, 2.19570E-003, 62.24504, 1.55000, 2.35974E-002, 0.00000
 Zone Sizing Information, 03_B2, Cooling, 6179.61777, 7106.56043, 0.36199, 0.41629, ADAKNASANNCLG.4CONDNSDBMWB, 8/21 19:00:00, 13.48900, 8.14665E-003, 96.77400, 2.47000, 2.35974E-002, 0.00000
 Zone Sizing Information, 03_B2, Heating, 0.00000, 0.00000, 0.00000, 0.32470, ADAKNASANNHTG99.6CONDNSDB, , -6.40000, 2.19570E-003, 96.77400, 2.47000, 2.35974E-002, 0.00000
 Zone Sizing Information, 03_C1, Cooling, 5373.45280, 6179.47072, 0.31477, 0.36198, ADAKNASANNCLG.4CONDNSDBMWB, 8/21 19:00:00, 13.48900, 8.14665E-003, 113.62042, 3.39000, 2.35974E-002, 0.00000
 Zone Sizing Information, 03_C1, Heating, 0.00000, 0.00000, 0.00000, 0.32470, ADAKNASANNHTG99.6CONDNSDB, , -6.40000, 2.19570E-003, 113.62042, 3.39000, 2.35974E-002, 0.00000
! <System Sizing Information>, System Name, Load Type, Peak Load Kind, User Design Capacity, Calc Des Air Flow Rate [m3/s], User Des Air Flow Rate [m3/s], Design Day Name, Date/Time of Peak
 System Sizing Information, AIR LOOP HVAC 1, Cooling, Sensible, 156.36, 0.18764, 0.18764, ADAKNASANNCLG.4CONDNSDBMWB, 8/21 05:00:00
 System Sizing Information, AIR LOOP HVAC 1, Heating, Sensible, 9071.51, 0.32470, 0.32470, ADAKNASANNHTG99.6CONDNSDB, 1/21 00:10:00
 System Sizing Information, AIR LOOP HVAC 10, Cooling, Sensible, 304.28, 0.36514, 0.36514, ADAKNASANNCLG.4CONDNSDBMWB, 8/21 05:00:00
 System Sizing Information, AIR LOOP HVAC 10, Heating, Sensible, 9071.51, 0.32470, 0.32470, ADAKNASANNHTG99.6CONDNSDB, 1/21 00:10:00
 System Sizing Information, AIR LOOP HVAC 11, Cooling, Sensible, 346.90, 0.41629, 0.41629, ADAKNASANNCLG.4CONDNSDBMWB, 8/21 05:00:00
 System Sizing Information, AIR LOOP HVAC 11, Heating, Sensible, 9071.51, 0.32470, 0.32470, ADAKNASANNHTG99.6CONDNSDB, 1/21 00:10:00
 System Sizing Information, AIR LOOP HVAC 12, Cooling, Sensible, 301.64, 0.36198, 0.36198, ADAKNASANNCLG.4CONDNSDBMWB, 8/21 05:00:00
 System Sizing Information, AIR LOOP HVAC 12, Heating, Sensible, 9071.51, 0.32470, 0.32470, ADAKNASANNHTG99.6CONDNSDB, 1/21 00:10:00
 System Sizing Information, AIR LOOP HVAC 2, Cooling, Sensible, 195.62, 0.23475, 0.23475, ADAKNASANNCLG.4CONDNSDBMWB, 8/21 05:00:00
 System Sizing Information, AIR LOOP HVAC 2, Heating, Sensible, 9071.51, 0.32470, 0.32470, ADAKNASANNHTG99.6CONDNSDB, 1/21 00:10:00
 System Sizing Information, AIR LOOP HVAC 3, Cooling, Sensible, 199.00, 0.23881, 0.23881, ADAKNASANNCLG.4CONDNSDBMWB, 8/21 05:00:00
 System Sizing Information, AIR LOOP HVAC 3, Heating, Sensible, 9071.51, 0.32470, 0.32470, ADAKNASANNHTG99.6CONDNSDB, 1/21 00:10:00
 System Sizing Information, AIR LOOP HVAC 4, Cooling, Sensible, 146.45, 0.17574, 0.17574, ADAKNASANNCLG.4CONDNSDBMWB, 8/21 05:00:00
 System Sizing Information, AIR LOOP HVAC 4, Heating, Sensible, 9071.51, 0.32470, 0.32470, ADAKNASANNHTG99.6CONDNSDB, 1/21 00:10:00
 System Sizing Information, AIR LOOP HVAC 5, Cooling, Sensible, 243.13, 0.29177, 0.29177, ADAKNASANNCLG.4CONDNSDBMWB, 8/21 05:00:00
 System Sizing Information, AIR LOOP HVAC 5, Heating, Sensible, 9071.51, 0.32470, 0.32470, ADAKNASANNHTG99.6CONDNSDB, 1/21 00:10:00
 System Sizing Information, AIR LOOP HVAC 6, Cooling, Sensible, 290.80, 0.34898, 0.34898, ADAKNASANNCLG.4CONDNSDBMWB, 8/21 05:00:00
 System Sizing Information, AIR LOOP HVAC 6, Heating, Sensible, 9071.51, 0.32470, 0.32470, ADAKNASANNHTG99.6CONDNSDB, 1/21 00:10:00
 System Sizing Information, AIR LOOP HVAC 7, Cooling, Sensible, 327.14, 0.39258, 0.39258, ADAKNASANNCLG.4CONDNSDBMWB, 8/21 05:00:00
 System Sizing Information, AIR LOOP HVAC 7, Heating, Sensible, 9071.51, 0.32470, 0.32470, ADAKNASANNHTG99.6CONDNSDB, 1/21 00:10:00
 System Sizing Information, AIR LOOP HVAC 8, Cooling, Sensible, 287.46, 0.34496, 0.34496, ADAKNASANNCLG.4CONDNSDBMWB, 8/21 05:00:00
 System Sizing Information, AIR LOOP HVAC 8, Heating, Sensible, 9071.51, 0.32470, 0.32470, ADAKNASANNHTG99.6CONDNSDB, 1/21 00:10:00
 System Sizing Information, AIR LOOP HVAC 9, Cooling, Sensible, 253.46, 0.30417, 0.30417, ADAKNASANNCLG.4CONDNSDBMWB, 8/21 05:00:00
 System Sizing Information, AIR LOOP HVAC 9, Heating, Sensible, 9071.51, 0.32470, 0.32470, ADAKNASANNHTG99.6CONDNSDB, 1/21 00:10:00
! <Component Sizing Information>, Component Type, Component Name, Input Field Description, Value
 Component Sizing Information, AirTerminal:SingleDuct:Uncontrolled, DIFFUSER, Design Size Maximum Air Flow Rate [m3/s], 0.32470
 Component Sizing Information, AirTerminal:SingleDuct:Uncontrolled, DIFFUSER 1, Design Size Maximum Air Flow Rate [m3/s], 0.32470
 Component Sizing Information, AirTerminal:SingleDuct:Uncontrolled, DIFFUSER 2, Design Size Maximum Air Flow Rate [m3/s], 0.32470
 Component Sizing Information, AirTerminal:SingleDuct:Uncontrolled, DIFFUSER 3, Design Size Maximum Air Flow Rate [m3/s], 0.32470
 Component Sizing Information, AirTerminal:SingleDuct:Uncontrolled, DIFFUSER 4, Design Size Maximum Air Flow Rate [m3/s], 0.32470
 Component Sizing Information, AirTerminal:SingleDuct:Uncontrolled, DIFFUSER 5, Design Size Maximum Air Flow Rate [m3/s], 0.34898
 Component Sizing Information, AirTerminal:SingleDuct:Uncontrolled, DIFFUSER 11, Design Size Maximum Air Flow Rate [m3/s], 0.39258
 Component Sizing Information, AirTerminal:SingleDuct:Uncontrolled, DIFFUSER 6, Design Size Maximum Air Flow Rate [m3/s], 0.34496
 Component Sizing Information, AirTerminal:SingleDuct:Uncontrolled, DIFFUSER 7, Design Size Maximum Air Flow Rate [m3/s], 0.32470
 Component Sizing Information, AirTerminal:SingleDuct:Uncontrolled, DIFFUSER 8, Design Size Maximum Air Flow Rate [m3/s], 0.36514
 Component Sizing Information, AirTerminal:SingleDuct:Uncontrolled, DIFFUSER 9, Design Size Maximum Air Flow Rate [m3/s], 0.41629
 Component Sizing Information, AirTerminal:SingleDuct:Uncontrolled, DIFFUSER 10, Design Size Maximum Air Flow Rate [m3/s], 0.36198
 Component Sizing Information, AirLoopHVAC, AIR LOOP HVAC 1, Sum of Air Terminal Maximum Heating Flow Rates [m3/s], 0.32470
 Component Sizing Information, AirLoopHVAC, AIR LOOP HVAC 1, Sum of Air Terminal Minimum Heating Flow Rates [m3/s], 0.32470
 Component Sizing Information, AirLoopHVAC, AIR LOOP HVAC 1, Sum of Air Terminal Maximum Flow Rates [m3/s], 0.32470
 Component Sizing Information, AirLoopHVAC, AIR LOOP HVAC 1, Adjusted Heating Design Air Flow Rate [m3/s], 0.32470
 Component Sizing Information, AirLoopHVAC, AIR LOOP HVAC 1, Adjusted Cooling Design Air Flow Rate [m3/s], 0.32470
 Component Sizing Information, AirLoopHVAC, AIR LOOP HVAC 1, Adjusted Main Design Air Flow Rate [m3/s], 0.32470
 Component Sizing Information, AirLoopHVAC, AIR LOOP HVAC 1, User Heating Air Flow Ratio [], 0.30000
 Component Sizing Information, AirLoopHVAC, AIR LOOP HVAC 1, Calculated Heating Air Flow Ratio [], 1.00000
 Component Sizing Information, AirLoopHVAC, AIR LOOP HVAC 10, Sum of Air Terminal Maximum Heating Flow Rates [m3/s], 0.36514
 Component Sizing Information, AirLoopHVAC, AIR LOOP HVAC 10, Sum of Air Terminal Minimum Heating Flow Rates [m3/s], 0.36514
 Component Sizing Information, AirLoopHVAC, AIR LOOP HVAC 10, Sum of Air Terminal Maximum Flow Rates [m3/s], 0.36514
 Component Sizing Information, AirLoopHVAC, AIR LOOP HVAC 10, Adjusted Heating Design Air Flow Rate [m3/s], 0.36514
 Component Sizing Information, AirLoopHVAC, AIR LOOP HVAC 10, Adjusted Cooling Design Air Flow Rate [m3/s], 0.36514
 Component Sizing Information, AirLoopHVAC, AIR LOOP HVAC 10, Adjusted Main Design Air Flow Rate [m3/s], 0.36514
 Component Sizing Information, AirLoopHVAC, AIR LOOP HVAC 10, User Heating Air Flow Ratio [], 0.30000
 Component Sizing Information, AirLoopHVAC, AIR LOOP HVAC 10, Calculated Heating Air Flow Ratio [], 1.00000
 Component Sizing Information, AirLoopHVAC, AIR LOOP HVAC 11, Sum of Air Terminal Maximum Heating Flow Rates [m3/s], 0.41629
 Component Sizing Information, AirLoopHVAC, AIR LOOP HVAC 11, Sum of Air Terminal Minimum Heating Flow Rates [m3/s], 0.41629
 Component Sizing Information, AirLoopHVAC, AIR LOOP HVAC 11, Sum of Air Terminal Maximum Flow Rates [m3/s], 0.41629
 Component Sizing Information, AirLoopHVAC, AIR LOOP HVAC 11, Adjusted Heating Design Air Flow Rate [m3/s], 0.41629
 Component Sizing Information, AirLoopHVAC, AIR LOOP HVAC 11, Adjusted Cooling Design Air Flow Rate [m3/s], 0.41629
 Component Sizing Information, AirLoopHVAC, AIR LOOP HVAC 11, Adjusted Main Design Air Flow Rate [m3/s], 0.41629
 Component Sizing Information, AirLoopHVAC, AIR LOOP HVAC 11, User Heating Air Flow Ratio [], 0.30000
 Component Sizing Information, AirLoopHVAC, AIR LOOP HVAC 11, Calculated Heating Air Flow Ratio [], 1.00000
 Component Sizing Information, AirLoopHVAC, AIR LOOP HVAC 12, Sum of Air Terminal Maximum Heating Flow Rates [m3/s], 0.36198
 Component Sizing Information, AirLoopHVAC, AIR LOOP HVAC 12, Sum of Air Terminal Minimum Heating Flow Rates [m3/s], 0.36198
 Component Sizing Information, AirLoopHVAC, AIR LOOP HVAC 12, Sum of Air Terminal Maximum Flow Rates [m3/s], 0.36198
 Component Sizing Information, AirLoopHVAC, AIR LOOP HVAC 12, Adjusted Heating Design Air Flow Rate [m3/s], 0.36198
 Component Sizing Information, AirLoopHVAC, AIR LOOP HVAC 12, Adjusted Cooling Design Air Flow Rate [m3/s], 0.36198
 Component Sizing Information, AirLoopHVAC, AIR LOOP HVAC 12, Adjusted Main Design Air Flow Rate [m3/s], 0.36198
 Component Sizing Information, AirLoopHVAC, AIR LOOP HVAC 12, User Heating Air Flow Ratio [], 0.30000
 Component Sizing Information, AirLoopHVAC, AIR LOOP HVAC 12, Calculated Heating Air Flow Ratio [], 1.00000
 Component Sizing Information, AirLoopHVAC, AIR LOOP HVAC 2, Sum of Air Terminal Maximum Heating Flow Rates [m3/s], 0.32470
 Component Sizing Information, AirLoopHVAC, AIR LOOP HVAC 2, Sum of Air Terminal Minimum Heating Flow Rates [m3/s], 0.32470
 Component Sizing Information, AirLoopHVAC, AIR LOOP HVAC 2, Sum of Air Terminal Maximum Flow Rates [m3/s], 0.32470
 Component Sizing Information, AirLoopHVAC, AIR LOOP HVAC 2, Adjusted Heating Design Air Flow Rate [m3/s], 0.32470
 Component Sizing Information, AirLoopHVAC, AIR LOOP HVAC 2, Adjusted Cooling Design Air Flow Rate [m3/s], 0.32470
 Component Sizing Information, AirLoopHVAC, AIR LOOP HVAC 2, Adjusted Main Design Air Flow Rate [m3/s], 0.32470
 Component Sizing Information, AirLoopHVAC, AIR LOOP HVAC 2, User Heating Air Flow Ratio [], 0.30000
 Component Sizing Information, AirLoopHVAC, AIR LOOP HVAC 2, Calculated Heating Air Flow Ratio [], 1.00000
 Component Sizing Information, AirLoopHVAC, AIR LOOP HVAC 3, Sum of Air Terminal Maximum Heating Flow Rates [m3/s], 0.32470
 Component Sizing Information, AirLoopHVAC, AIR LOOP HVAC 3, Sum of Air Terminal Minimum Heating Flow Rates [m3/s], 0.32470
 Component Sizing Information, AirLoopHVAC, AIR LOOP HVAC 3, Sum of Air Terminal Maximum Flow Rates [m3/s], 0.32470
 Component Sizing Information, AirLoopHVAC, AIR LOOP HVAC 3, Adjusted Heating Design Air Flow Rate [m3/s], 0.32470
 Component Sizing Information, AirLoopHVAC, AIR LOOP HVAC 3, Adjusted Cooling Design Air Flow Rate [m3/s], 0.32470
 Component Sizing Information, AirLoopHVAC, AIR LOOP HVAC 3, Adjusted Main Design Air Flow Rate [m3/s], 0.32470
 Component Sizing Information, AirLoopHVAC, AIR LOOP HVAC 3, User Heating Air Flow Ratio [], 0.30000
 Component Sizing Information, AirLoopHVAC, AIR LOOP HVAC 3, Calculated Heating Air Flow Ratio [], 1.00000
 Component Sizing Information, AirLoopHVAC, AIR LOOP HVAC 4, Sum of Air Terminal Maximum Heating Flow Rates [m3/s], 0.32470
 Component Sizing Information, AirLoopHVAC, AIR LOOP HVAC 4, Sum of Air Terminal Minimum Heating Flow Rates [m3/s], 0.32470
 Component Sizing Information, AirLoopHVAC, AIR LOOP HVAC 4, Sum of Air Terminal Maximum Flow Rates [m3/s], 0.32470
 Component Sizing Information, AirLoopHVAC, AIR LOOP HVAC 4, Adjusted Heating Design Air Flow Rate [m3/s], 0.32470
 Component Sizing Information, AirLoopHVAC, AIR LOOP HVAC 4, Adjusted Cooling Design Air Flow Rate [m3/s], 0.32470
 Component Sizing Information, AirLoopHVAC, AIR LOOP HVAC 4, Adjusted Main Design Air Flow Rate [m3/s], 0.32470
 Component Sizing Information, AirLoopHVAC, AIR LOOP HVAC 4, User Heating Air Flow Ratio [], 0.30000
 Component Sizing Information, AirLoopHVAC, AIR LOOP HVAC 4, Calculated Heating Air Flow Ratio [], 1.00000
 Component Sizing Information, AirLoopHVAC, AIR LOOP HVAC 5, Sum of Air Terminal Maximum Heating Flow Rates [m3/s], 0.32470
 Component Sizing Information, AirLoopHVAC, AIR LOOP HVAC 5, Sum of Air Terminal Minimum Heating Flow Rates [m3/s], 0.32470
 Component Sizing Information, AirLoopHVAC, AIR LOOP HVAC 5, Sum of Air Terminal Maximum Flow Rates [m3/s], 0.32470
 Component Sizing Information, AirLoopHVAC, AIR LOOP HVAC 5, Adjusted Heating Design Air Flow Rate [m3/s], 0.32470
 Component Sizing Information, AirLoopHVAC, AIR LOOP HVAC 5, Adjusted Cooling Design Air Flow Rate [m3/s], 0.32470
 Component Sizing Information, AirLoopHVAC, AIR LOOP HVAC 5, Adjusted Main Design Air Flow Rate [m3/s], 0.32470
 Component Sizing Information, AirLoopHVAC, AIR LOOP HVAC 5, User Heating Air Flow Ratio [], 0.30000
 Component Sizing Information, AirLoopHVAC, AIR LOOP HVAC 5, Calculated Heating Air Flow Ratio [], 1.00000
 Component Sizing Information, AirLoopHVAC, AIR LOOP HVAC 6, Sum of Air Terminal Maximum Heating Flow Rates [m3/s], 0.34898
 Component Sizing Information, AirLoopHVAC, AIR LOOP HVAC 6, Sum of Air Terminal Minimum Heating Flow Rates [m3/s], 0.34898
 Component Sizing Information, AirLoopHVAC, AIR LOOP HVAC 6, Sum of Air Terminal Maximum Flow Rates [m3/s], 0.34898
 Component Sizing Information, AirLoopHVAC, AIR LOOP HVAC 6, Adjusted Heating Design Air Flow Rate [m3/s], 0.34898
 Component Sizing Information, AirLoopHVAC, AIR LOOP HVAC 6, Adjusted Cooling Design Air Flow Rate [m3/s], 0.34898
 Component Sizing Information, AirLoopHVAC, AIR LOOP HVAC 6, Adjusted Main Design Air Flow Rate [m3/s], 0.34898
 Component Sizing Information, AirLoopHVAC, AIR LOOP HVAC 6, User Heating Air Flow Ratio [], 0.30000
 Component Sizing Information, AirLoopHVAC, AIR LOOP HVAC 6, Calculated Heating Air Flow Ratio [], 1.00000
 Component Sizing Information, AirLoopHVAC, AIR LOOP HVAC 7, Sum of Air Terminal Maximum Heating Flow Rates [m3/s], 0.39258
 Component Sizing Information, AirLoopHVAC, AIR LOOP HVAC 7, Sum of Air Terminal Minimum Heating Flow Rates [m3/s], 0.39258
 Component Sizing Information, AirLoopHVAC, AIR LOOP HVAC 7, Sum of Air Terminal Maximum Flow Rates [m3/s], 0.39258
 Component Sizing Information, AirLoopHVAC, AIR LOOP HVAC 7, Adjusted Heating Design Air Flow Rate [m3/s], 0.39258
 Component Sizing Information, AirLoopHVAC, AIR LOOP HVAC 7, Adjusted Cooling Design Air Flow Rate [m3/s], 0.39258
 Component Sizing Information, AirLoopHVAC, AIR LOOP HVAC 7, Adjusted Main Design Air Flow Rate [m3/s], 0.39258
 Component Sizing Information, AirLoopHVAC, AIR LOOP HVAC 7, User Heating Air Flow Ratio [], 0.30000
 Component Sizing Information, AirLoopHVAC, AIR LOOP HVAC 7, Calculated Heating Air Flow Ratio [], 1.00000
 Component Sizing Information, AirLoopHVAC, AIR LOOP HVAC 8, Sum of Air Terminal Maximum Heating Flow Rates [m3/s], 0.34496
 Component Sizing Information, AirLoopHVAC, AIR LOOP HVAC 8, Sum of Air Terminal Minimum Heating Flow Rates [m3/s], 0.34496
 Component Sizing Information, AirLoopHVAC, AIR LOOP HVAC 8, Sum of Air Terminal Maximum Flow Rates [m3/s], 0.34496
 Component Sizing Information, AirLoopHVAC, AIR LOOP HVAC 8, Adjusted Heating Design Air Flow Rate [m3/s], 0.34496
 Component Sizing Information, AirLoopHVAC, AIR LOOP HVAC 8, Adjusted Cooling Design Air Flow Rate [m3/s], 0.34496
 Component Sizing Information, AirLoopHVAC, AIR LOOP HVAC 8, Adjusted Main Design Air Flow Rate [m3/s], 0.34496
 Component Sizing Information, AirLoopHVAC, AIR LOOP HVAC 8, User Heating Air Flow Ratio [], 0.30000
 Component Sizing Information, AirLoopHVAC, AIR LOOP HVAC 8, Calculated Heating Air Flow Ratio [], 1.00000
 Component Sizing Information, AirLoopHVAC, AIR LOOP HVAC 9, Sum of Air Terminal Maximum Heating Flow Rates [m3/s], 0.32470
 Component Sizing Information, AirLoopHVAC, AIR LOOP HVAC 9, Sum of Air Terminal Minimum Heating Flow Rates [m3/s], 0.32470
 Component Sizing Information, AirLoopHVAC, AIR LOOP HVAC 9, Sum of Air Terminal Maximum Flow Rates [m3/s], 0.32470
 Component Sizing Information, AirLoopHVAC, AIR LOOP HVAC 9, Adjusted Heating Design Air Flow Rate [m3/s], 0.32470
 Component Sizing Information, AirLoopHVAC, AIR LOOP HVAC 9, Adjusted Cooling Design Air Flow Rate [m3/s], 0.32470
 Component Sizing Information, AirLoopHVAC, AIR LOOP HVAC 9, Adjusted Main Design Air Flow Rate [m3/s], 0.32470
 Component Sizing Information, AirLoopHVAC, AIR LOOP HVAC 9, User Heating Air Flow Ratio [], 0.30000
 Component Sizing Information, AirLoopHVAC, AIR LOOP HVAC 9, Calculated Heating Air Flow Ratio [], 1.00000
 Component Sizing Information, AirLoopHVAC, AIR LOOP HVAC 1, Design Supply Air Flow Rate [m3/s], 0.32470
 Component Sizing Information, AirLoopHVAC, AIR LOOP HVAC 10, Design Supply Air Flow Rate [m3/s], 0.36514
 Component Sizing Information, AirLoopHVAC, AIR LOOP HVAC 11, Design Supply Air Flow Rate [m3/s], 0.41629
 Component Sizing Information, AirLoopHVAC, AIR LOOP HVAC 12, Design Supply Air Flow Rate [m3/s], 0.36198
 Component Sizing Information, AirLoopHVAC, AIR LOOP HVAC 2, Design Supply Air Flow Rate [m3/s], 0.32470
 Component Sizing Information, AirLoopHVAC, AIR LOOP HVAC 3, Design Supply Air Flow Rate [m3/s], 0.32470
 Component Sizing Information, AirLoopHVAC, AIR LOOP HVAC 4, Design Supply Air Flow Rate [m3/s], 0.32470
 Component Sizing Information, AirLoopHVAC, AIR LOOP HVAC 5, Design Supply Air Flow Rate [m3/s], 0.32470
 Component Sizing Information, AirLoopHVAC, AIR LOOP HVAC 6, Design Supply Air Flow Rate [m3/s], 0.34898
 Component Sizing Information, AirLoopHVAC, AIR LOOP HVAC 7, Design Supply Air Flow Rate [m3/s], 0.39258
 Component Sizing Information, AirLoopHVAC, AIR LOOP HVAC 8, Design Supply Air Flow Rate [m3/s], 0.34496
 Component Sizing Information, AirLoopHVAC, AIR LOOP HVAC 9, Design Supply Air Flow Rate [m3/s], 0.32470
!<Controller:MechanicalVentilation>,Name,Availability Schedule Name,Demand Controlled Ventilation {Yes/No},System Outdoor Air Method,Zone Maximum Outdoor Air Fraction,Number of Zones,Zone Name,DSOA Name,DSZAD Name
 Controller:MechanicalVentilation,CONTROLLER MECHANICAL VENTILATION 1,ALWAYS ON DISCRETE HVAC_LIBRARY,No,ZoneSum,1.00,1,01_A1,HVAC_OA,01_A1 DESIGN SPEC ZONE AIR DIST
 Controller:MechanicalVentilation,CONTROLLER MECHANICAL VENTILATION 2,ALWAYS ON DISCRETE HVAC_LIBRARY,No,ZoneSum,1.00,1,01_A2,HVAC_OA,01_A2 DESIGN SPEC ZONE AIR DIST
 Controller:MechanicalVentilation,CONTROLLER MECHANICAL VENTILATION 3,ALWAYS ON DISCRETE HVAC_LIBRARY,No,ZoneSum,1.00,1,01_B2,HVAC_OA,01_B2 DESIGN SPEC ZONE AIR DIST
 Controller:MechanicalVentilation,CONTROLLER MECHANICAL VENTILATION 4,ALWAYS ON DISCRETE HVAC_LIBRARY,No,ZoneSum,1.00,1,01_C1,HVAC_OA,01_C1 DESIGN SPEC ZONE AIR DIST
 Controller:MechanicalVentilation,CONTROLLER MECHANICAL VENTILATION 5,ALWAYS ON DISCRETE HVAC_LIBRARY,No,ZoneSum,1.00,1,02_A1,HVAC_OA,02_A1 DESIGN SPEC ZONE AIR DIST
 Controller:MechanicalVentilation,CONTROLLER MECHANICAL VENTILATION 6,ALWAYS ON DISCRETE HVAC_LIBRARY,No,ZoneSum,1.00,1,02_A2,HVAC_OA,02_A2 DESIGN SPEC ZONE AIR DIST
 Controller:MechanicalVentilation,CONTROLLER MECHANICAL VENTILATION 7,ALWAYS ON DISCRETE HVAC_LIBRARY,No,ZoneSum,1.00,1,02_B2,HVAC_OA,02_B2 DESIGN SPEC ZONE AIR DIST
 Controller:MechanicalVentilation,CONTROLLER MECHANICAL VENTILATION 8,ALWAYS ON DISCRETE HVAC_LIBRARY,No,ZoneSum,1.00,1,02_C1,HVAC_OA,02_C1 DESIGN SPEC ZONE AIR DIST
 Controller:MechanicalVentilation,CONTROLLER MECHANICAL VENTILATION 9,ALWAYS ON DISCRETE HVAC_LIBRARY,No,ZoneSum,1.00,1,03_A1,HVAC_OA,03_A1 DESIGN SPEC ZONE AIR DIST
 Controller:MechanicalVentilation,CONTROLLER MECHANICAL VENTILATION 10,ALWAYS ON DISCRETE HVAC_LIBRARY,No,ZoneSum,1.00,1,03_A2,HVAC_OA,03_A2 DESIGN SPEC ZONE AIR DIST
 Controller:MechanicalVentilation,CONTROLLER MECHANICAL VENTILATION 11,ALWAYS ON DISCRETE HVAC_LIBRARY,No,ZoneSum,1.00,1,03_B2,HVAC_OA,03_B2 DESIGN SPEC ZONE AIR DIST
 Controller:MechanicalVentilation,CONTROLLER MECHANICAL VENTILATION 12,ALWAYS ON DISCRETE HVAC_LIBRARY,No,ZoneSum,1.00,1,03_C1,HVAC_OA,03_C1 DESIGN SPEC ZONE AIR DIST
 Component Sizing Information, Controller:OutdoorAir, OUTDOOR AIR CONTROLLER, Maximum Outdoor Air Flow Rate [m3/s], 0.32470
 Component Sizing Information, Controller:OutdoorAir, OUTDOOR AIR CONTROLLER, Minimum Outdoor Air Flow Rate [m3/s], 2.35974E-002
 Component Sizing Information, AirLoopHVAC:UnitarySystem, UNITARY - DX HEAT PUMP - CYCLING - ELEC REHEAT, Design Size Supply Air Flow Rate [m3/s], 0.32470
 Component Sizing Information, AirLoopHVAC:UnitarySystem, UNITARY - DX HEAT PUMP - CYCLING - ELEC REHEAT, Design Size Heating Supply Air Flow Rate [m3/s], 0.32470
 Component Sizing Information, AirLoopHVAC:UnitarySystem, UNITARY - DX HEAT PUMP - CYCLING - ELEC REHEAT, Design Size Cooling Supply Air Flow Rate [m3/s], 0.32470
 Component Sizing Information, AirLoopHVAC:UnitarySystem, UNITARY - DX HEAT PUMP - CYCLING - ELEC REHEAT, Design Size No Load Supply Air Flow Rate [m3/s], 0.32470
 Component Sizing Information, AirLoopHVAC:UnitarySystem, UNITARY - DX HEAT PUMP - CYCLING - ELEC REHEAT, Design Size Nominal Cooling Capacity [W], 8063.07030
 Component Sizing Information, AirLoopHVAC:UnitarySystem, UNITARY - DX HEAT PUMP - CYCLING - ELEC REHEAT, Design Size Nominal Heating Capacity [W], 8063.07030
 Component Sizing Information, AirLoopHVAC:UnitarySystem, UNITARY - DX HEAT PUMP - CYCLING - ELEC REHEAT, Design Size Maximum Supply Air Temperature [C], 16.70000
 Component Sizing Information, AirLoopHVAC:UnitarySystem, UNITARY - DX HEAT PUMP - CYCLING - ELEC REHEAT, User-Specified Maximum Supply Air Temperature [C], 80.00000
 Component Sizing Information, AirLoopHVAC:UnitarySystem, UNITARY - DX HEAT PUMP - CYCLING - ELEC REHEAT, Design Size Supplemental Heating Coil Nominal Capacity [W], 8063.07030
 Component Sizing Information, AirLoopHVAC:UnitarySystem, UNITARY - DX HEAT PUMP - CYCLING - ELEC REHEAT, User-Specified Supplemental Heating Coil Nominal Capacity [W], 8063.07030
 Component Sizing Information, AirLoopHVAC:UnitarySystem, UNITARY - DX HEAT PUMP - CYCLING - ELEC REHEAT, Fraction of Supply Air Flow That Goes Through the Controlling Zone, 1.00000
 Component Sizing Information, Fan:OnOff, FAN ON OFF 5, Design Size Maximum Flow Rate [m3/s], 0.32470
 Component Sizing Information, Coil:Cooling:DX:SingleSpeed, 1 SPD DX CLG COIL 4, Design Size Rated Air Flow Rate [m3/s], 0.32470
 Component Sizing Information, Coil:Cooling:DX:SingleSpeed, 1 SPD DX CLG COIL 4, Design Size Gross Rated Total Cooling Capacity [W], 8063.07030
 Component Sizing Information, Coil:Cooling:DX:SingleSpeed, 1 SPD DX CLG COIL 4, Design Size Gross Rated Sensible Heat Ratio, 0.69808
! <DX Cooling Coil Standard Rating Information>, Component Type, Component Name, Standard Rating (Net) Cooling Capacity {W}, Standard Rated Net COP {W/W}, EER {Btu/W-h}, SEER {Btu/W-h}, IEER {Btu/W-h}
 DX Cooling Coil Standard Rating Information, Coil:Cooling:DX:SingleSpeed, 1 SPD DX CLG COIL 4, 7806.9, 3.07, 10.47, 10.41, 10.78
 Component Sizing Information, Coil:Heating:DX:SingleSpeed, 1 SPD DX HTG COIL 3, Design Size Rated Air Flow Rate [m3/s], 0.32470
 Component Sizing Information, Coil:Heating:DX:SingleSpeed, 1 SPD DX HTG COIL 3, Design Size Gross Rated Heating Capacity [W], 8063.07030
 Component Sizing Information, Coil:Heating:DX:SingleSpeed, 1 SPD DX HTG COIL 3, Design Size Resistive Defrost Heater Capacity [W], 8063.07030
 Component Sizing Information, Coil:Heating:DX:SingleSpeed, 1 SPD DX HTG COIL 3, User-Specified Resistive Defrost Heater Capacity [W], 2000.00000
! <DX Heating Coil Standard Rating Information>, Component Type, Component Name, High Temperature Heating (net) Rating Capacity {W}, Low Temperature Heating (net) Rating Capacity {W}, HSPF {Btu/W-h}, Region Number
 DX Heating Coil Standard Rating Information, Coil:Heating:DX:SingleSpeed, 1 SPD DX HTG COIL 3, 8323.9, 4580.3, 6.54, 4
 Component Sizing Information, Coil:Heating:Electric, ELEC HTG COIL 5, Design Size Nominal Capacity [W], 8063.07030
 Component Sizing Information, Controller:OutdoorAir, OUTDOOR AIR CONTROLLER 9, Maximum Outdoor Air Flow Rate [m3/s], 0.36514
 Component Sizing Information, Controller:OutdoorAir, OUTDOOR AIR CONTROLLER 9, Minimum Outdoor Air Flow Rate [m3/s], 2.35974E-002
 Component Sizing Information, AirLoopHVAC:UnitarySystem, UNITARY - DX HEAT PUMP - CYCLING - ELEC REHEAT 9, Design Size Supply Air Flow Rate [m3/s], 0.36514
 Component Sizing Information, AirLoopHVAC:UnitarySystem, UNITARY - DX HEAT PUMP - CYCLING - ELEC REHEAT 9, Design Size Heating Supply Air Flow Rate [m3/s], 0.36514
 Component Sizing Information, AirLoopHVAC:UnitarySystem, UNITARY - DX HEAT PUMP - CYCLING - ELEC REHEAT 9, Design Size Cooling Supply Air Flow Rate [m3/s], 0.36514
 Component Sizing Information, AirLoopHVAC:UnitarySystem, UNITARY - DX HEAT PUMP - CYCLING - ELEC REHEAT 9, Design Size No Load Supply Air Flow Rate [m3/s], 0.36514
 Component Sizing Information, AirLoopHVAC:UnitarySystem, UNITARY - DX HEAT PUMP - CYCLING - ELEC REHEAT 9, Design Size Nominal Cooling Capacity [W], 9067.41192
 Component Sizing Information, AirLoopHVAC:UnitarySystem, UNITARY - DX HEAT PUMP - CYCLING - ELEC REHEAT 9, Design Size Nominal Heating Capacity [W], 9067.41192
 Component Sizing Information, AirLoopHVAC:UnitarySystem, UNITARY - DX HEAT PUMP - CYCLING - ELEC REHEAT 9, Design Size Maximum Supply Air Temperature [C], 16.70000
 Component Sizing Information, AirLoopHVAC:UnitarySystem, UNITARY - DX HEAT PUMP - CYCLING - ELEC REHEAT 9, User-Specified Maximum Supply Air Temperature [C], 80.00000
 Component Sizing Information, AirLoopHVAC:UnitarySystem, UNITARY - DX HEAT PUMP - CYCLING - ELEC REHEAT 9, Design Size Supplemental Heating Coil Nominal Capacity [W], 9067.41192
 Component Sizing Information, AirLoopHVAC:UnitarySystem, UNITARY - DX HEAT PUMP - CYCLING - ELEC REHEAT 9, User-Specified Supplemental Heating Coil Nominal Capacity [W], 9067.41192
 Component Sizing Information, AirLoopHVAC:UnitarySystem, UNITARY - DX HEAT PUMP - CYCLING - ELEC REHEAT 9, Fraction of Supply Air Flow That Goes Through the Controlling Zone, 1.00000
 Component Sizing Information, Fan:OnOff, FAN ON OFF 14, Design Size Maximum Flow Rate [m3/s], 0.36514
 Component Sizing Information, Coil:Cooling:DX:SingleSpeed, 1 SPD DX CLG COIL 13, Design Size Rated Air Flow Rate [m3/s], 0.36514
 Component Sizing Information, Coil:Cooling:DX:SingleSpeed, 1 SPD DX CLG COIL 13, Design Size Gross Rated Total Cooling Capacity [W], 9067.41192
 Component Sizing Information, Coil:Cooling:DX:SingleSpeed, 1 SPD DX CLG COIL 13, Design Size Gross Rated Sensible Heat Ratio, 0.69808
 DX Cooling Coil Standard Rating Information, Coil:Cooling:DX:SingleSpeed, 1 SPD DX CLG COIL 13, 8779.3, 3.07, 10.47, 10.41, 10.78
 Component Sizing Information, Coil:Heating:DX:SingleSpeed, 1 SPD DX HTG COIL 12, Design Size Rated Air Flow Rate [m3/s], 0.36514
 Component Sizing Information, Coil:Heating:DX:SingleSpeed, 1 SPD DX HTG COIL 12, Design Size Gross Rated Heating Capacity [W], 9067.41192
 Component Sizing Information, Coil:Heating:DX:SingleSpeed, 1 SPD DX HTG COIL 12, Design Size Resistive Defrost Heater Capacity [W], 9067.41192
 Component Sizing Information, Coil:Heating:DX:SingleSpeed, 1 SPD DX HTG COIL 12, User-Specified Resistive Defrost Heater Capacity [W], 2000.00000
 DX Heating Coil Standard Rating Information, Coil:Heating:DX:SingleSpeed, 1 SPD DX HTG COIL 12, 9360.8, 5150.8, 6.54, 4
 Component Sizing Information, Coil:Heating:Electric, ELEC HTG COIL 14, Design Size Nominal Capacity [W], 9067.41192
 Component Sizing Information, Controller:OutdoorAir, OUTDOOR AIR CONTROLLER 10, Maximum Outdoor Air Flow Rate [m3/s], 0.41629
 Component Sizing Information, Controller:OutdoorAir, OUTDOOR AIR CONTROLLER 10, Minimum Outdoor Air Flow Rate [m3/s], 2.35974E-002
 Component Sizing Information, AirLoopHVAC:UnitarySystem, UNITARY - DX HEAT PUMP - CYCLING - ELEC REHEAT 10, Design Size Supply Air Flow Rate [m3/s], 0.41629
 Component Sizing Information, AirLoopHVAC:UnitarySystem, UNITARY - DX HEAT PUMP - CYCLING - ELEC REHEAT 10, Design Size Heating Supply Air Flow Rate [m3/s], 0.41629
 Component Sizing Information, AirLoopHVAC:UnitarySystem, UNITARY - DX HEAT PUMP - CYCLING - ELEC REHEAT 10, Design Size Cooling Supply Air Flow Rate [m3/s], 0.41629
 Component Sizing Information, AirLoopHVAC:UnitarySystem, UNITARY - DX HEAT PUMP - CYCLING - ELEC REHEAT 10, Design Size No Load Supply Air Flow Rate [m3/s], 0.41629
 Component Sizing Information, AirLoopHVAC:UnitarySystem, UNITARY - DX HEAT PUMP - CYCLING - ELEC REHEAT 10, Design Size Nominal Cooling Capacity [W], 10337.51350
 Component Sizing Information, AirLoopHVAC:UnitarySystem, UNITARY - DX HEAT PUMP - CYCLING - ELEC REHEAT 10, Design Size Nominal Heating Capacity [W], 10337.51350
 Component Sizing Information, AirLoopHVAC:UnitarySystem, UNITARY - DX HEAT PUMP - CYCLING - ELEC REHEAT 10, Design Size Maximum Supply Air Temperature [C], 16.70000
 Component Sizing Information, AirLoopHVAC:UnitarySystem, UNITARY - DX HEAT PUMP - CYCLING - ELEC REHEAT 10, User-Specified Maximum Supply Air Temperature [C], 80.00000
 Component Sizing Information, AirLoopHVAC:UnitarySystem, UNITARY - DX HEAT PUMP - CYCLING - ELEC REHEAT 10, Design Size Supplemental Heating Coil Nominal Capacity [W], 10337.51350
 Component Sizing Information, AirLoopHVAC:UnitarySystem, UNITARY - DX HEAT PUMP - CYCLING - ELEC REHEAT 10, User-Specified Supplemental Heating Coil Nominal Capacity [W], 10337.51350
 Component Sizing Information, AirLoopHVAC:UnitarySystem, UNITARY - DX HEAT PUMP - CYCLING - ELEC REHEAT 10, Fraction of Supply Air Flow That Goes Through the Controlling Zone, 1.00000
 Component Sizing Information, Fan:OnOff, FAN ON OFF 15, Design Size Maximum Flow Rate [m3/s], 0.41629
 Component Sizing Information, Coil:Cooling:DX:SingleSpeed, 1 SPD DX CLG COIL 14, Design Size Rated Air Flow Rate [m3/s], 0.41629
 Component Sizing Information, Coil:Cooling:DX:SingleSpeed, 1 SPD DX CLG COIL 14, Design Size Gross Rated Total Cooling Capacity [W], 10337.51350
 Component Sizing Information, Coil:Cooling:DX:SingleSpeed, 1 SPD DX CLG COIL 14, Design Size Gross Rated Sensible Heat Ratio, 0.69808
 DX Cooling Coil Standard Rating Information, Coil:Cooling:DX:SingleSpeed, 1 SPD DX CLG COIL 14, 10009.1, 3.07, 10.47, 10.41, 10.78
 Component Sizing Information, Coil:Heating:DX:SingleSpeed, 1 SPD DX HTG COIL 13, Design Size Rated Air Flow Rate [m3/s], 0.41629
 Component Sizing Information, Coil:Heating:DX:SingleSpeed, 1 SPD DX HTG COIL 13, Design Size Gross Rated Heating Capacity [W], 10337.51350
 Component Sizing Information, Coil:Heating:DX:SingleSpeed, 1 SPD DX HTG COIL 13, Design Size Resistive Defrost Heater Capacity [W], 10337.51350
 Component Sizing Information, Coil:Heating:DX:SingleSpeed, 1 SPD DX HTG COIL 13, User-Specified Resistive Defrost Heater Capacity [W], 2000.00000
 DX Heating Coil Standard Rating Information, Coil:Heating:DX:SingleSpeed, 1 SPD DX HTG COIL 13, 10672.0, 5872.3, 6.54, 4
 Component Sizing Information, Coil:Heating:Electric, ELEC HTG COIL 15, Design Size Nominal Capacity [W], 10337.51350
 Component Sizing Information, Controller:OutdoorAir, OUTDOOR AIR CONTROLLER 11, Maximum Outdoor Air Flow Rate [m3/s], 0.36198
 Component Sizing Information, Controller:OutdoorAir, OUTDOOR AIR CONTROLLER 11, Minimum Outdoor Air Flow Rate [m3/s], 2.35974E-002
 Component Sizing Information, AirLoopHVAC:UnitarySystem, UNITARY - DX HEAT PUMP - CYCLING - ELEC REHEAT 11, Design Size Supply Air Flow Rate [m3/s], 0.36198
 Component Sizing Information, AirLoopHVAC:UnitarySystem, UNITARY - DX HEAT PUMP - CYCLING - ELEC REHEAT 11, Design Size Heating Supply Air Flow Rate [m3/s], 0.36198
 Component Sizing Information, AirLoopHVAC:UnitarySystem, UNITARY - DX HEAT PUMP - CYCLING - ELEC REHEAT 11, Design Size Cooling Supply Air Flow Rate [m3/s], 0.36198
 Component Sizing Information, AirLoopHVAC:UnitarySystem, UNITARY - DX HEAT PUMP - CYCLING - ELEC REHEAT 11, Design Size No Load Supply Air Flow Rate [m3/s], 0.36198
 Component Sizing Information, AirLoopHVAC:UnitarySystem, UNITARY - DX HEAT PUMP - CYCLING - ELEC REHEAT 11, Design Size Nominal Cooling Capacity [W], 8988.85583
 Component Sizing Information, AirLoopHVAC:UnitarySystem, UNITARY - DX HEAT PUMP - CYCLING - ELEC REHEAT 11, Design Size Nominal Heating Capacity [W], 8988.85583
 Component Sizing Information, AirLoopHVAC:UnitarySystem, UNITARY - DX HEAT PUMP - CYCLING - ELEC REHEAT 11, Design Size Maximum Supply Air Temperature [C], 16.70000
 Component Sizing Information, AirLoopHVAC:UnitarySystem, UNITARY - DX HEAT PUMP - CYCLING - ELEC REHEAT 11, User-Specified Maximum Supply Air Temperature [C], 80.00000
 Component Sizing Information, AirLoopHVAC:UnitarySystem, UNITARY - DX HEAT PUMP - CYCLING - ELEC REHEAT 11, Design Size Supplemental Heating Coil Nominal Capacity [W], 8988.85583
 Component Sizing Information, AirLoopHVAC:UnitarySystem, UNITARY - DX HEAT PUMP - CYCLING - ELEC REHEAT 11, User-Specified Supplemental Heating Coil Nominal Capacity [W], 8988.85583
 Component Sizing Information, AirLoopHVAC:UnitarySystem, UNITARY - DX HEAT PUMP - CYCLING - ELEC REHEAT 11, Fraction of Supply Air Flow That Goes Through the Controlling Zone, 1.00000
 Component Sizing Information, Fan:OnOff, FAN ON OFF 16, Design Size Maximum Flow Rate [m3/s], 0.36198
 Component Sizing Information, Coil:Cooling:DX:SingleSpeed, 1 SPD DX CLG COIL 15, Design Size Rated Air Flow Rate [m3/s], 0.36198
 Component Sizing Information, Coil:Cooling:DX:SingleSpeed, 1 SPD DX CLG COIL 15, Design Size Gross Rated Total Cooling Capacity [W], 8988.85583
 Component Sizing Information, Coil:Cooling:DX:SingleSpeed, 1 SPD DX CLG COIL 15, Design Size Gross Rated Sensible Heat Ratio, 0.69808
 DX Cooling Coil Standard Rating Information, Coil:Cooling:DX:SingleSpeed, 1 SPD DX CLG COIL 15, 8703.3, 3.07, 10.47, 10.41, 10.78
 Component Sizing Information, Coil:Heating:DX:SingleSpeed, 1 SPD DX HTG COIL 14, Design Size Rated Air Flow Rate [m3/s], 0.36198
 Component Sizing Information, Coil:Heating:DX:SingleSpeed, 1 SPD DX HTG COIL 14, Design Size Gross Rated Heating Capacity [W], 8988.85583
 Component Sizing Information, Coil:Heating:DX:SingleSpeed, 1 SPD DX HTG COIL 14, Design Size Resistive Defrost Heater Capacity [W], 8988.85583
 Component Sizing Information, Coil:Heating:DX:SingleSpeed, 1 SPD DX HTG COIL 14, User-Specified Resistive Defrost Heater Capacity [W], 2000.00000
 DX Heating Coil Standard Rating Information, Coil:Heating:DX:SingleSpeed, 1 SPD DX HTG COIL 14, 9279.7, 5106.2, 6.54, 4
 Component Sizing Information, Coil:Heating:Electric, ELEC HTG COIL 16, Design Size Nominal Capacity [W], 8988.85583
 Component Sizing Information, Controller:OutdoorAir, OUTDOOR AIR CONTROLLER 1, Maximum Outdoor Air Flow Rate [m3/s], 0.32470
 Component Sizing Information, Controller:OutdoorAir, OUTDOOR AIR CONTROLLER 1, Minimum Outdoor Air Flow Rate [m3/s], 2.35974E-002
 Component Sizing Information, AirLoopHVAC:UnitarySystem, UNITARY - DX HEAT PUMP - CYCLING - ELEC REHEAT 1, Design Size Supply Air Flow Rate [m3/s], 0.32470
 Component Sizing Information, AirLoopHVAC:UnitarySystem, UNITARY - DX HEAT PUMP - CYCLING - ELEC REHEAT 1, Design Size Heating Supply Air Flow Rate [m3/s], 0.32470
 Component Sizing Information, AirLoopHVAC:UnitarySystem, UNITARY - DX HEAT PUMP - CYCLING - ELEC REHEAT 1, Design Size Cooling Supply Air Flow Rate [m3/s], 0.32470
 Component Sizing Information, AirLoopHVAC:UnitarySystem, UNITARY - DX HEAT PUMP - CYCLING - ELEC REHEAT 1, Design Size No Load Supply Air Flow Rate [m3/s], 0.32470
 Component Sizing Information, AirLoopHVAC:UnitarySystem, UNITARY - DX HEAT PUMP - CYCLING - ELEC REHEAT 1, Design Size Nominal Cooling Capacity [W], 8063.07030
 Component Sizing Information, AirLoopHVAC:UnitarySystem, UNITARY - DX HEAT PUMP - CYCLING - ELEC REHEAT 1, Design Size Nominal Heating Capacity [W], 8063.07030
 Component Sizing Information, AirLoopHVAC:UnitarySystem, UNITARY - DX HEAT PUMP - CYCLING - ELEC REHEAT 1, Design Size Maximum Supply Air Temperature [C], 16.70000
 Component Sizing Information, AirLoopHVAC:UnitarySystem, UNITARY - DX HEAT PUMP - CYCLING - ELEC REHEAT 1, User-Specified Maximum Supply Air Temperature [C], 80.00000
[...]
! <Environment:Design Day Misc>,DayOfYear,ASHRAE A Coeff,ASHRAE B Coeff,ASHRAE C Coeff,Solar Constant-Annual Variation,Eq of Time {minutes}, Solar Declination Angle {deg}, Solar Model
Environment:Design Day Data,15.40,4.90,DefaultMultipliers,101265,180,4.9,0.00,No,No
Environment:Design Day Misc,233,1106.3,0.2000,0.1216,1.0,-3.33,12.4,ASHRAETau
Environment:WarmupDays,  6
! <Warmup Convergence Information>,Zone Name,Environment Type/Name,Average Warmup Temperature Difference {deltaC},Std Dev Warmup Temperature Difference {deltaC},Max Temperature Pass/Fail Convergence,Min Temperature Pass/Fail Convergence,Average Warmup Load Difference {W},Std Dev Warmup Load Difference {W},Heating Load Pass/Fail Convergence,Cooling Load Pass/Fail Convergence
 Warmup Convergence Information,01_A1,SizingPeriod: ADAKNASANNCLG.4CONDNSDBMWB,3.4216988391E-005,6.9701044350E-005,Pass,Pass,4.0110045716E-002,8.3517380066E-002,Pass,Pass
 Warmup Convergence Information,01_A2,SizingPeriod: ADAKNASANNCLG.4CONDNSDBMWB,4.4821391422E-005,9.1925303279E-005,Pass,Pass,2.7548339548E-002,5.6884238596E-002,Pass,Pass
 Warmup Convergence Information,01_B2,SizingPeriod: ADAKNASANNCLG.4CONDNSDBMWB,1.5882991971E-002,3.0691587684E-002,Pass,Pass,5.6293658663E-002,0.1929151583,Pass,Pass
 Warmup Convergence Information,01_C1,SizingPeriod: ADAKNASANNCLG.4CONDNSDBMWB,1.7400681111E-002,3.6136757897E-002,Pass,Pass,5.5813619732E-002,0.1582513883,Pass,Pass
 Warmup Convergence Information,02_A1,SizingPeriod: ADAKNASANNCLG.4CONDNSDBMWB,3.3589542707E-005,6.7449647559E-005,Pass,Pass,1.8363831208E-002,3.2989785088E-002,Pass,Pass
 Warmup Convergence Information,02_A2,SizingPeriod: ADAKNASANNCLG.4CONDNSDBMWB,4.5389997906E-005,8.4282808179E-005,Pass,Pass,1.7916020254E-002,2.9639310033E-002,Pass,Pass
 Warmup Convergence Information,02_B2,SizingPeriod: ADAKNASANNCLG.4CONDNSDBMWB,2.9627530037E-005,5.7137764224E-005,Pass,Pass,2.1203774074E-002,3.3803356267E-002,Pass,Pass
 Warmup Convergence Information,02_C1,SizingPeriod: ADAKNASANNCLG.4CONDNSDBMWB,3.8085023209E-005,6.6325252167E-005,Pass,Pass,2.1582577183E-002,3.5270260349E-002,Pass,Pass
 Warmup Convergence Information,03_A1,SizingPeriod: ADAKNASANNCLG.4CONDNSDBMWB,3.4257900266E-005,7.0724618405E-005,Pass,Pass,1.9923938675E-002,3.7432914215E-002,Pass,Pass
 Warmup Convergence Information,03_A2,SizingPeriod: ADAKNASANNCLG.4CONDNSDBMWB,2.8986804996E-005,6.1118946948E-005,Pass,Pass,1.9182338505E-002,3.4978877927E-002,Pass,Pass
 Warmup Convergence Information,03_B2,SizingPeriod: ADAKNASANNCLG.4CONDNSDBMWB,2.8145946650E-005,5.4946356086E-005,Pass,Pass,2.2819220317E-002,3.8614709202E-002,Pass,Pass
 Warmup Convergence Information,03_C1,SizingPeriod: ADAKNASANNCLG.4CONDNSDBMWB,3.7403105731E-005,6.7797412201E-005,Pass,Pass,2.3303981340E-002,3.9930915760E-002,Pass,Pass
Environment,ADAKNASANNCLG.4CONDNSDPMDB,SizingPeriod:DesignDay,08/21,08/21,SummerDesignDay,1,N/A,N/A,N/A,N/A,N/A,N/A
Environment:Daylight Saving,No,SizingPeriod:DesignDay
Environment:Design Day Data,14.70,4.90,DefaultMultipliers,101265,180,4.9,0.00,No,No
Environment:Design Day Misc,233,1106.3,0.2000,0.1216,1.0,-3.33,12.4,ASHRAETau
Environment:WarmupDays,  6
 Warmup Convergence Information,01_A1,SizingPeriod: ADAKNASANNCLG.4CONDNSDPMDB,3.4356242015E-005,7.1092849689E-005,Pass,Pass,4.0909590264E-002,8.5205117800E-002,Pass,Pass
 Warmup Convergence Information,01_A2,SizingPeriod: ADAKNASANNCLG.4CONDNSDPMDB,4.6385696392E-005,9.5424178090E-005,Pass,Pass,2.7812519511E-002,5.7427276890E-002,Pass,Pass
 Warmup Convergence Information,01_B2,SizingPeriod: ADAKNASANNCLG.4CONDNSDPMDB,1.7069952793E-002,3.2290405451E-002,Pass,Pass,5.3834814794E-002,0.1669892455,Pass,Pass
 Warmup Convergence Information,01_C1,SizingPeriod: ADAKNASANNCLG.4CONDNSDPMDB,1.8426130506E-002,3.9148283657E-002,Pass,Pass,5.3967445314E-002,0.1463618868,Pass,Pass
 Warmup Convergence Information,02_A1,SizingPeriod: ADAKNASANNCLG.4CONDNSDPMDB,3.2923135296E-005,6.8949456758E-005,Pass,Pass,1.8474940088E-002,3.3193919850E-002,Pass,Pass
 Warmup Convergence Information,02_A2,SizingPeriod: ADAKNASANNCLG.4CONDNSDPMDB,4.6439006919E-005,8.6660425914E-005,Pass,Pass,1.8039976039E-002,2.9837629871E-002,Pass,Pass
 Warmup Convergence Information,02_B2,SizingPeriod: ADAKNASANNCLG.4CONDNSDPMDB,3.0046852442E-005,5.8646634496E-005,Pass,Pass,2.1460662492E-002,3.4183336491E-002,Pass,Pass
 Warmup Convergence Information,02_C1,SizingPeriod: ADAKNASANNCLG.4CONDNSDPMDB,3.7501770259E-005,6.6983183446E-005,Pass,Pass,2.1828373939E-002,3.5673664538E-002,Pass,Pass
 Warmup Convergence Information,03_A1,SizingPeriod: ADAKNASANNCLG.4CONDNSDPMDB,3.3722201488E-005,7.2185714916E-005,Pass,Pass,2.0077139261E-002,3.7735461465E-002,Pass,Pass
 Warmup Convergence Information,03_A2,SizingPeriod: ADAKNASANNCLG.4CONDNSDPMDB,2.9623200452E-005,6.2815269990E-005,Pass,Pass,1.9373134961E-002,3.5339446781E-002,Pass,Pass
 Warmup Convergence Information,03_B2,SizingPeriod: ADAKNASANNCLG.4CONDNSDPMDB,2.8615238049E-005,5.6327341476E-005,Pass,Pass,2.3128674391E-002,3.9178531562E-002,Pass,Pass
 Warmup Convergence Information,03_C1,SizingPeriod: ADAKNASANNCLG.4CONDNSDPMDB,3.6892711239E-005,6.8285301449E-005,Pass,Pass,2.3614503733E-002,4.0515394464E-002,Pass,Pass
Environment,ADAKNASANNCLG.4CONDNSENTHMDB,SizingPeriod:DesignDay,08/21,08/21,SummerDesignDay,1,N/A,N/A,N/A,N/A,N/A,N/A
Environment:Daylight Saving,No,SizingPeriod:DesignDay
Environment:Design Day Data,15.00,4.90,DefaultMultipliers,101265,180,4.9,0.00,No,No
Environment:Design Day Misc,233,1106.3,0.2000,0.1216,1.0,-3.33,12.4,ASHRAETau
Environment:WarmupDays,  6
 Warmup Convergence Information,01_A1,SizingPeriod: ADAKNASANNCLG.4CONDNSENTHMDB,3.6714862108E-005,7.6221591348E-005,Pass,Pass,4.0559607439E-002,8.4465436043E-002,Pass,Pass
 Warmup Convergence Information,01_A2,SizingPeriod: ADAKNASANNCLG.4CONDNSENTHMDB,4.9443274286E-005,1.0513205222E-004,Pass,Pass,2.7699553133E-002,5.7197783092E-002,Pass,Pass
 Warmup Convergence Information,01_B2,SizingPeriod: ADAKNASANNCLG.4CONDNSENTHMDB,1.6563301406E-002,3.1767216373E-002,Pass,Pass,5.4947261193E-002,0.1784554660,Pass,Pass
 Warmup Convergence Information,01_C1,SizingPeriod: ADAKNASANNCLG.4CONDNSENTHMDB,1.7987741348E-002,3.7768267616E-002,Pass,Pass,5.4645109014E-002,0.1500735572,Pass,Pass
 Warmup Convergence Information,02_A1,SizingPeriod: ADAKNASANNCLG.4CONDNSENTHMDB,3.4678752729E-005,7.3389508744E-005,Pass,Pass,1.8426825493E-002,3.3105117042E-002,Pass,Pass
 Warmup Convergence Information,02_A2,SizingPeriod: ADAKNASANNCLG.4CONDNSENTHMDB,4.8643916405E-005,9.4188230515E-005,Pass,Pass,1.7988396331E-002,2.9749494449E-002,Pass,Pass
 Warmup Convergence Information,02_B2,SizingPeriod: ADAKNASANNCLG.4CONDNSENTHMDB,3.1292881707E-005,6.2995091892E-005,Pass,Pass,2.1351978176E-002,3.4014510053E-002,Pass,Pass
 Warmup Convergence Information,02_C1,SizingPeriod: ADAKNASANNCLG.4CONDNSENTHMDB,3.8726507649E-005,7.0085972150E-005,Pass,Pass,2.1720918742E-002,3.5497924396E-002,Pass,Pass
 Warmup Convergence Information,03_A1,SizingPeriod: ADAKNASANNCLG.4CONDNSENTHMDB,3.5798557374E-005,7.6760921925E-005,Pass,Pass,2.0011416843E-002,3.7602516076E-002,Pass,Pass
 Warmup Convergence Information,03_A2,SizingPeriod: ADAKNASANNCLG.4CONDNSENTHMDB,3.0841083298E-005,6.7894644392E-005,Pass,Pass,1.9293992154E-002,3.5180576562E-002,Pass,Pass
 Warmup Convergence Information,03_B2,SizingPeriod: ADAKNASANNCLG.4CONDNSENTHMDB,2.9799447363E-005,6.0509768891E-005,Pass,Pass,2.2999060123E-002,3.8927319555E-002,Pass,Pass
 Warmup Convergence Information,03_C1,SizingPeriod: ADAKNASANNCLG.4CONDNSENTHMDB,3.8168175462E-005,7.1246191445E-005,Pass,Pass,2.3480148267E-002,4.0257882925E-002,Pass,Pass
Environment,ADAKNASANNCLG.4CONDNSWBMDB,SizingPeriod:DesignDay,08/21,08/21,SummerDesignDay,1,N/A,N/A,N/A,N/A,N/A,N/A
Environment:Daylight Saving,No,SizingPeriod:DesignDay
Environment:Design Day Data,15.00,4.90,DefaultMultipliers,101265,180,4.9,0.00,No,No
Environment:Design Day Misc,233,1106.3,0.2000,0.1216,1.0,-3.33,12.4,ASHRAETau
Environment:WarmupDays,  6
 Warmup Convergence Information,01_A1,SizingPeriod: ADAKNASANNCLG.4CONDNSWBMDB,3.4550225452E-005,7.0997374418E-005,Pass,Pass,4.0560848187E-002,8.4467413754E-002,Pass,Pass
 Warmup Convergence Information,01_A2,SizingPeriod: ADAKNASANNCLG.4CONDNSWBMDB,4.6703339741E-005,9.4903206365E-005,Pass,Pass,2.7697503777E-002,5.7199770396E-002,Pass,Pass
 Warmup Convergence Information,01_B2,SizingPeriod: ADAKNASANNCLG.4CONDNSWBMDB,1.6561422461E-002,3.1768798491E-002,Pass,Pass,5.4945225372E-002,0.1784495504,Pass,Pass
 Warmup Convergence Information,01_C1,SizingPeriod: ADAKNASANNCLG.4CONDNSWBMDB,1.7986587830E-002,3.7770101637E-002,Pass,Pass,5.4656308122E-002,0.1500737568,Pass,Pass
 Warmup Convergence Information,02_A1,SizingPeriod: ADAKNASANNCLG.4CONDNSWBMDB,3.3532659130E-005,6.8767182146E-005,Pass,Pass,1.8427339034E-002,3.3105908127E-002,Pass,Pass
 Warmup Convergence Information,02_A2,SizingPeriod: ADAKNASANNCLG.4CONDNSWBMDB,4.6781178012E-005,8.6436954765E-005,Pass,Pass,1.7987074125E-002,2.9751111086E-002,Pass,Pass
 Warmup Convergence Information,02_B2,SizingPeriod: ADAKNASANNCLG.4CONDNSWBMDB,3.0211227109E-005,5.8552884204E-005,Pass,Pass,2.1349900348E-002,3.4017994983E-002,Pass,Pass
 Warmup Convergence Information,02_C1,SizingPeriod: ADAKNASANNCLG.4CONDNSWBMDB,3.7846175982E-005,6.6969043935E-005,Pass,Pass,2.1722402315E-002,3.5498675558E-002,Pass,Pass
 Warmup Convergence Information,03_A1,SizingPeriod: ADAKNASANNCLG.4CONDNSWBMDB,3.4213239080E-005,7.2073996468E-005,Pass,Pass,2.0011539588E-002,3.7604541937E-002,Pass,Pass
 Warmup Convergence Information,03_A2,SizingPeriod: ADAKNASANNCLG.4CONDNSWBMDB,2.9841962067E-005,6.2763033996E-005,Pass,Pass,1.9291214169E-002,3.5182845906E-002,Pass,Pass
 Warmup Convergence Information,03_B2,SizingPeriod: ADAKNASANNCLG.4CONDNSWBMDB,2.8763404054E-005,5.6257603105E-005,Pass,Pass,2.2995224623E-002,3.8932131992E-002,Pass,Pass
 Warmup Convergence Information,03_C1,SizingPeriod: ADAKNASANNCLG.4CONDNSWBMDB,3.7154843564E-005,6.8334825481E-005,Pass,Pass,2.3480654309E-002,4.0260938867E-002,Pass,Pass
Environment,ADAKNASANNHTG99.6CONDNSDB,SizingPeriod:DesignDay,01/21,01/21,WinterDesignDay,1,N/A,N/A,N/A,N/A,N/A,N/A
Environment:Daylight Saving,No,SizingPeriod:DesignDay
Environment:Design Day Data,-6.40,0.00,DefaultMultipliers,101265,200,2.1,0.00,No,No
Environment:Design Day Misc, 21,1229.0,0.1415,5.7310E-002,1.0,-11.15,-20.1,ASHRAEClearSky
Environment:WarmupDays,  6
 Warmup Convergence Information,01_A1,SizingPeriod: ADAKNASANNHTG99.6CONDNSDB,2.8859421265E-002,4.5491053409E-002,Pass,Pass,2.3996609686E-002,6.8336568394E-002,Pass,Pass
 Warmup Convergence Information,01_A2,SizingPeriod: ADAKNASANNHTG99.6CONDNSDB,3.2187617342E-002,6.0624855569E-002,Pass,Pass,2.3290159574E-002,5.8571683353E-002,Pass,Pass
 Warmup Convergence Information,01_B2,SizingPeriod: ADAKNASANNHTG99.6CONDNSDB,4.1355486246E-002,5.7909306569E-002,Pass,Pass,2.9549349315E-002,7.7684168591E-002,Pass,Pass
 Warmup Convergence Information,01_C1,SizingPeriod: ADAKNASANNHTG99.6CONDNSDB,4.1024083023E-002,5.3938443772E-002,Pass,Pass,2.6494537920E-002,6.4547275410E-002,Pass,Pass
 Warmup Convergence Information,02_A1,SizingPeriod: ADAKNASANNHTG99.6CONDNSDB,2.0793873827E-005,4.2668553823E-005,Pass,Pass,1.7810114980E-002,4.1716233195E-002,Pass,Pass
 Warmup Convergence Information,02_A2,SizingPeriod: ADAKNASANNHTG99.6CONDNSDB,2.7232599791E-005,5.2286986764E-005,Pass,Pass,1.8466306102E-002,4.1979287981E-002,Pass,Pass
 Warmup Convergence Information,02_B2,SizingPeriod: ADAKNASANNHTG99.6CONDNSDB,4.8853945297E-004,2.5669450732E-003,Pass,Pass,2.5411885733E-002,5.9123071898E-002,Pass,Pass
 Warmup Convergence Information,02_C1,SizingPeriod: ADAKNASANNHTG99.6CONDNSDB,1.9348667999E-005,4.7153869885E-005,Pass,Pass,2.5625756411E-002,5.7340332879E-002,Pass,Pass
 Warmup Convergence Information,03_A1,SizingPeriod: ADAKNASANNHTG99.6CONDNSDB,2.0089738615E-005,4.4449234113E-005,Pass,Pass,1.9928456837E-002,5.0382236890E-002,Pass,Pass
 Warmup Convergence Information,03_A2,SizingPeriod: ADAKNASANNHTG99.6CONDNSDB,1.6132007480E-005,3.7326911577E-005,Pass,Pass,2.1875775274E-002,5.6923693346E-002,Pass,Pass
 Warmup Convergence Information,03_B2,SizingPeriod: ADAKNASANNHTG99.6CONDNSDB,5.1206610551E-003,1.3958349395E-002,Pass,Pass,2.5751761279E-002,7.2810307681E-002,Pass,Pass
 Warmup Convergence Information,03_C1,SizingPeriod: ADAKNASANNHTG99.6CONDNSDB,3.8054525435E-003,1.0179183298E-002,Pass,Pass,2.5988180945E-002,6.8357680323E-002,Pass,Pass
Environment,ADAKNASANNHTGWIND99.6CONDNSWSMCDB,SizingPeriod:DesignDay,01/21,01/21,WinterDesignDay,1,N/A,N/A,N/A,N/A,N/A,N/A
Environment:Daylight Saving,No,SizingPeriod:DesignDay
Environment:Design Day Data,0.90,0.00,DefaultMultipliers,101265,200,19.2,0.00,No,No
Environment:Design Day Misc, 21,1229.0,0.1415,5.7310E-002,1.0,-11.15,-20.1,ASHRAEClearSky
Environment:WarmupDays,  6
 Warmup Convergence Information,01_A1,SizingPeriod: ADAKNASANNHTGWIND99.6CONDNSWSMCDB,1.4595816433E-002,2.9636347590E-002,Pass,Pass,2.9745030922E-002,9.5546920438E-002,Pass,Pass
 Warmup Convergence Information,01_A2,SizingPeriod: ADAKNASANNHTGWIND99.6CONDNSWSMCDB,9.2964725047E-003,2.3406395369E-002,Pass,Pass,2.6097426637E-002,6.9183090951E-002,Pass,Pass
 Warmup Convergence Information,01_B2,SizingPeriod: ADAKNASANNHTGWIND99.6CONDNSWSMCDB,3.6154750345E-002,4.2511670838E-002,Pass,Pass,2.5982691501E-002,9.2004230778E-002,Pass,Pass
 Warmup Convergence Information,01_C1,SizingPeriod: ADAKNASANNHTGWIND99.6CONDNSWSMCDB,3.4926895115E-002,4.0450347043E-002,Pass,Pass,2.5164875327E-002,9.3225056741E-002,Pass,Pass
 Warmup Convergence Information,02_A1,SizingPeriod: ADAKNASANNHTGWIND99.6CONDNSWSMCDB,2.2632787670E-005,4.9961951767E-005,Pass,Pass,1.6150011406E-002,3.8394277856E-002,Pass,Pass
 Warmup Convergence Information,02_A2,SizingPeriod: ADAKNASANNHTGWIND99.6CONDNSWSMCDB,3.0372783887E-005,6.0920309093E-005,Pass,Pass,1.6744559749E-002,3.8389292047E-002,Pass,Pass
 Warmup Convergence Information,02_B2,SizingPeriod: ADAKNASANNHTGWIND99.6CONDNSWSMCDB,1.6571002844E-005,4.0793810367E-005,Pass,Pass,2.1137204429E-002,4.9789604640E-002,Pass,Pass
 Warmup Convergence Information,02_C1,SizingPeriod: ADAKNASANNHTGWIND99.6CONDNSWSMCDB,2.0938235144E-005,5.1499470657E-005,Pass,Pass,2.0606338490E-002,4.7099471010E-002,Pass,Pass
 Warmup Convergence Information,03_A1,SizingPeriod: ADAKNASANNHTGWIND99.6CONDNSWSMCDB,2.2228223132E-005,5.2214835812E-005,Pass,Pass,1.7573216688E-002,4.4601056401E-002,Pass,Pass
 Warmup Convergence Information,03_A2,SizingPeriod: ADAKNASANNHTGWIND99.6CONDNSWSMCDB,1.8068072649E-005,4.4108142224E-005,Pass,Pass,1.8362726966E-002,4.7987312998E-002,Pass,Pass
 Warmup Convergence Information,03_B2,SizingPeriod: ADAKNASANNHTGWIND99.6CONDNSWSMCDB,1.5466786997E-005,3.9848677704E-005,Pass,Pass,2.2787524562E-002,5.9037062963E-002,Pass,Pass
 Warmup Convergence Information,03_C1,SizingPeriod: ADAKNASANNHTGWIND99.6CONDNSWSMCDB,1.9896869988E-005,5.1282457433E-005,Pass,Pass,2.2294105931E-002,5.5797984494E-002,Pass,Pass
Environment,ADAKNASANNHUM_N99.6CONDNSDPMCDB,SizingPeriod:DesignDay,01/21,01/21,WinterDesignDay,1,N/A,N/A,N/A,N/A,N/A,N/A
Environment:Daylight Saving,No,SizingPeriod:DesignDay
Environment:Design Day Data,-4.60,0.00,DefaultMultipliers,101265,200,2.1,0.00,No,No
Environment:Design Day Misc, 21,1229.0,0.1415,5.7310E-002,1.0,-11.15,-20.1,ASHRAEClearSky
Environment:WarmupDays,  6
 Warmup Convergence Information,01_A1,SizingPeriod: ADAKNASANNHUM_N99.6CONDNSDPMCDB,2.5485299718E-002,4.3239307054E-002,Pass,Pass,2.5083699756E-002,7.0945516895E-002,Pass,Pass
 Warmup Convergence Information,01_A2,SizingPeriod: ADAKNASANNHUM_N99.6CONDNSDPMCDB,2.6595072610E-002,5.1210592527E-002,Pass,Pass,2.4014192689E-002,6.3068915737E-002,Pass,Pass
 Warmup Convergence Information,01_B2,SizingPeriod: ADAKNASANNHUM_N99.6CONDNSDPMCDB,4.1304943998E-002,5.5145894484E-002,Pass,Pass,2.7750357424E-002,8.3396471963E-002,Pass,Pass
 Warmup Convergence Information,01_C1,SizingPeriod: ADAKNASANNHUM_N99.6CONDNSDPMCDB,4.0993198664E-002,5.1909029224E-002,Pass,Pass,2.4075657740E-002,6.9765394622E-002,Pass,Pass
 Warmup Convergence Information,02_A1,SizingPeriod: ADAKNASANNHUM_N99.6CONDNSDPMCDB,2.0124117916E-005,3.7837946161E-005,Pass,Pass,1.7412453252E-002,4.0925599889E-002,Pass,Pass
 Warmup Convergence Information,02_A2,SizingPeriod: ADAKNASANNHUM_N99.6CONDNSDPMCDB,2.6043057267E-005,4.6380735823E-005,Pass,Pass,1.8057115955E-002,4.1142068554E-002,Pass,Pass
 Warmup Convergence Information,02_B2,SizingPeriod: ADAKNASANNHUM_N99.6CONDNSDPMCDB,1.4549476713E-005,3.2755339054E-005,Pass,Pass,2.4977234494E-002,5.7978764063E-002,Pass,Pass
 Warmup Convergence Information,02_C1,SizingPeriod: ADAKNASANNHUM_N99.6CONDNSDPMCDB,1.8593536079E-005,4.2868222700E-005,Pass,Pass,2.4213983671E-002,5.4506648646E-002,Pass,Pass
 Warmup Convergence Information,03_A1,SizingPeriod: ADAKNASANNHUM_N99.6CONDNSDPMCDB,1.9314369236E-005,3.9199305278E-005,Pass,Pass,1.9422255861E-002,4.9185206058E-002,Pass,Pass
 Warmup Convergence Information,03_A2,SizingPeriod: ADAKNASANNHUM_N99.6CONDNSDPMCDB,1.5492557035E-005,3.2809562609E-005,Pass,Pass,2.1069864274E-002,5.4874425810E-002,Pass,Pass
 Warmup Convergence Information,03_B2,SizingPeriod: ADAKNASANNHUM_N99.6CONDNSDPMCDB,1.7811171619E-003,7.2968313954E-003,Pass,Pass,2.6563086484E-002,7.1642144302E-002,Pass,Pass
 Warmup Convergence Information,03_C1,SizingPeriod: ADAKNASANNHUM_N99.6CONDNSDPMCDB,9.6788735237E-004,4.9941556540E-003,Pass,Pass,2.6990763442E-002,6.8557608459E-002,Pass,Pass
Environment,RUN PERIOD 1,WeatherFileRunPeriod,01/01,12/31,Sunday,365,Use RunPeriod Specified Day,No,No,No,Yes,Yes
Environment:Daylight Saving,No,RunPeriod Object
Environment:WarmupDays,  6
 Warmup Convergence Information,01_A1,RunPeriod: RUN PERIOD 1,7.8160656137E-007,8.4710707539E-007,Pass,Pass,3.6344064531E-002,9.4497188073E-002,Pass,Pass
 Warmup Convergence Information,01_A2,RunPeriod: RUN PERIOD 1,1.5337577164E-006,1.6969371249E-006,Pass,Pass,1.6404378090E-002,2.4960871404E-002,Pass,Pass
 Warmup Convergence Information,01_B2,RunPeriod: RUN PERIOD 1,4.8299622146E-007,5.2062786501E-007,Pass,Pass,7.2164346393E-003,1.2163284247E-002,Pass,Pass
 Warmup Convergence Information,01_C1,RunPeriod: RUN PERIOD 1,4.5625940038E-007,5.0099523130E-007,Pass,Pass,1.7780575356E-002,4.3597645337E-002,Pass,Pass
 Warmup Convergence Information,02_A1,RunPeriod: RUN PERIOD 1,2.2420262422E-003,1.7528773125E-002,Pass,Pass,0.2107135315,0.6619904880,Pass,Pass
 Warmup Convergence Information,02_A2,RunPeriod: RUN PERIOD 1,1.5538550611E-006,1.7348833711E-006,Pass,Pass,3.6581230157E-002,6.3368705890E-002,Pass,Pass
 Warmup Convergence Information,02_B2,RunPeriod: RUN PERIOD 1,4.5830524242E-007,5.1148663137E-007,Pass,Pass,2.0556109569E-002,3.5186648263E-002,Pass,Pass
 Warmup Convergence Information,02_C1,RunPeriod: RUN PERIOD 1,1.4045124296E-003,1.1227302329E-002,Pass,Pass,0.1113176188,0.3958251687,Pass,Pass
 Warmup Convergence Information,03_A1,RunPeriod: RUN PERIOD 1,1.0300159785E-006,1.5943565841E-006,Pass,Pass,0.1644576467,0.6510526680,Pass,Pass
 Warmup Convergence Information,03_A2,RunPeriod: RUN PERIOD 1,6.5433996049E-007,7.1949459597E-007,Pass,Pass,2.9515067364E-002,4.1761092688E-002,Pass,Pass
 Warmup Convergence Information,03_B2,RunPeriod: RUN PERIOD 1,4.0348972711E-007,4.4934810530E-007,Pass,Pass,1.9604200410E-002,2.9006368946E-002,Pass,Pass
 Warmup Convergence Information,03_C1,RunPeriod: RUN PERIOD 1,8.8089037854E-007,2.4882407673E-006,Pass,Pass,0.1747883807,0.9260263855,Pass,Pass
! <Program Control Information:Threads/Parallel Sims>, Threading Supported,Maximum Number of Threads, Env Set Threads (OMP_NUM_THREADS), EP Env Set Threads (EP_OMP_NUM_THREADS), IDF Set Threads, Number of Threads Used (Interior Radiant Exchange), Number Nominal Surfaces, Number Parallel Sims
Program Control:Threads/Parallel Sims, No,1, N/A, N/A, N/A, N/A, N/A, N/A
End of Data
