Program Version,EnergyPlus, Version 8.9.0-40101eaafd, YMD=2018.05.31 16:21
! <Version>, Version ID
 Version, 8.9
! <Timesteps per Hour>, #TimeSteps, Minutes per TimeStep {minutes}
 Timesteps per Hour,  6, 10
! <System Convergence Limits>, Minimum System TimeStep {minutes}, Max HVAC Iterations, Minimum Plant Iterations, Maximum Plant Iterations
 System Convergence Limits, 1, 20, 2, 8
! <Simulation Control>, Do Zone Sizing, Do System Sizing, Do Plant Sizing, Do Design Days, Do Weather Simulation, Do HVAC Sizing Simulation
 Simulation Control, Yes, Yes, No, Yes, Yes, No
! <Output Reporting Tolerances>, Tolerance for Time Heating Setpoint Not Met, Tolerance for Zone Cooling Setpoint Not Met Time
 Output Reporting Tolerances, 0.200, 0.200, 
! <Site:GroundTemperature:BuildingSurface>,Jan{C},Feb{C},Mar{C},Apr{C},May{C},Jun{C},Jul{C},Aug{C},Sep{C},Oct{C},Nov{C},Dec{C}
 Site:GroundTemperature:BuildingSurface,  18.00,  18.00,  18.00,  18.00,  18.00,  18.00,  18.00,  18.00,  18.00,  18.00,  18.00,  18.00
! <Site:GroundTemperature:FCfactorMethod>,Jan{C},Feb{C},Mar{C},Apr{C},May{C},Jun{C},Jul{C},Aug{C},Sep{C},Oct{C},Nov{C},Dec{C}
 Site:GroundTemperature:FCfactorMethod,  -1.17,  -4.55,  -5.47,  -4.67,  -0.10,   5.02,   9.83,  13.32,  14.34,  12.70,   8.75,   3.78
! <Site:GroundTemperature:Shallow>,Jan{C},Feb{C},Mar{C},Apr{C},May{C},Jun{C},Jul{C},Aug{C},Sep{C},Oct{C},Nov{C},Dec{C}
 Site:GroundTemperature:Shallow,  13.00,  13.00,  13.00,  13.00,  13.00,  13.00,  13.00,  13.00,  13.00,  13.00,  13.00,  13.00
! <Site:GroundTemperature:Deep>,Jan{C},Feb{C},Mar{C},Apr{C},May{C},Jun{C},Jul{C},Aug{C},Sep{C},Oct{C},Nov{C},Dec{C}
 Site:GroundTemperature:Deep,  16.00,  16.00,  16.00,  16.00,  16.00,  16.00,  16.00,  16.00,  16.00,  16.00,  16.00,  16.00
! <Site:GroundReflectance>,Jan{dimensionless},Feb{dimensionless},Mar{dimensionless},Apr{dimensionless},May{dimensionless},Jun{dimensionless},Jul{dimensionless},Aug{dimensionless},Sep{dimensionless},Oct{dimensionless},Nov{dimensionless},Dec{dimensionless}
 Site:GroundReflectance,  0.20,  0.20,  0.20,  0.20,  0.20,  0.20,  0.20,  0.20,  0.20,  0.20,  0.20,  0.20
! <Site:GroundReflectance:SnowModifier>, Normal, Daylighting {dimensionless}
 Site:GroundReflectance:SnowModifier,   1.000,   1.000
! <Site:GroundReflectance:Snow>,Jan{dimensionless},Feb{dimensionless},Mar{dimensionless},Apr{dimensionless},May{dimensionless},Jun{dimensionless},Jul{dimensionless},Aug{dimensionless},Sep{dimensionless},Oct{dimensionless},Nov{dimensionless},Dec{dimensionless}
 Site:GroundReflectance:Snow,  0.20,  0.20,  0.20,  0.20,  0.20,  0.20,  0.20,  0.20,  0.20,  0.20,  0.20,  0.20
! <Site:GroundReflectance:Snow:Daylighting>,Jan{dimensionless},Feb{dimensionless},Mar{dimensionless},Apr{dimensionless},May{dimensionless},Jun{dimensionless},Jul{dimensionless},Aug{dimensionless},Sep{dimensionless},Oct{dimensionless},Nov{dimensionless},Dec{dimensionless}
 Site:GroundReflectance:Snow:Daylighting,  0.20,  0.20,  0.20,  0.20,  0.20,  0.20,  0.20,  0.20,  0.20,  0.20,  0.20,  0.20
! <Environment:Weather Station>,Wind Sensor Height Above Ground {m},Wind Speed Profile Exponent {},Wind Speed Profile Boundary Layer Thickness {m},Air Temperature Sensor Height Above Ground {m},Wind Speed Modifier Coefficient-Internal,Temperature Modifier Coefficient-Internal
Environment:Weather Station,10.000,0.140,270.000,1.500,1.586,9.750E-003
! <Site:Location>, Location Name, Latitude {N+/S- Deg}, Longitude {E+/W- Deg},  Time Zone Number {GMT+/-}, Elevation {m},  Standard Pressure at Elevation {Pa}, Standard RhoAir at Elevation
Site:Location,Anchorage Merrill Field AK USA TMY3 WMO#=702735,61.22,-149.85,-9.00,42.00,100821,1.1983
! <Building Information>, Building Name,North Axis {deg},Terrain,  Loads Convergence Tolerance Value,Temperature Convergence Tolerance Value,  Solar Distribution,Maximum Number of Warmup Days,Minimum Number of Warmup Days
 Building Information,KA2 A Flatroof Sample Building,270.000,Suburbs,4.00000E-002,0.40000,FullExterior,25,6
! <Inside Convection Algorithm>, Algorithm {Simple | TARP | CeilingDiffuser | AdaptiveConvectionAlgorithm}
Inside Convection Algorithm,TARP
! <Outside Convection Algorithm>, Algorithm {SimpleCombined | TARP | MoWitt | DOE-2 | AdaptiveConvectionAlgorithm}
Outside Convection Algorithm,DOE-2
! <Sky Radiance Distribution>, Value {Anisotropic}
Sky Radiance Distribution,Anisotropic
! <Zone Air Solution Algorithm>, Value {ThirdOrderBackwardDifference | AnalyticalSolution | EulerMethod}
 Zone Air Solution Algorithm, ThirdOrderBackwardDifference
! <Zone Air Carbon Dioxide Balance Simulation>, Simulation {Yes/No}, Carbon Dioxide Concentration
 Zone Air Carbon Dioxide Balance Simulation, No,N/A
! <Zone Air Generic Contaminant Balance Simulation>, Simulation {Yes/No}, Generic Contaminant Concentration
 Zone Air Generic Contaminant Balance Simulation, No,N/A
! <Zone Air Mass Flow Balance Simulation>, Enforce Mass Balance, Adjust Zone Mixing, Adjust Zone Infiltration {AddInfiltration | AdjustInfiltration | None}, Infiltration Zones {MixingSourceZonesOnly | AllZones}
 Zone Air Mass Flow Balance Simulation, No,N/A,N/A,N/A
! <HVACSystemRootFindingAlgorithm>, Value {RegulaFalsi | Bisection | BisectionThenRegulaFalsi | RegulaFalsiThenBisection}
 HVACSystemRootFindingAlgorithm, RegulaFalsi
! <Environment:Site Atmospheric Variation>,Wind Speed Profile Exponent {},Wind Speed Profile Boundary Layer Thickness {m},Air Temperature Gradient Coefficient {K/m}
Environment:Site Atmospheric Variation,0.220,370.000,6.500000E-003
! <Surface Geometry>,Starting Corner,Vertex Input Direction,Coordinate System,Daylight Reference Point Coordinate System,Rectangular (Simple) Surface Coordinate System
 Surface Geometry,UpperLeftCorner,Counterclockwise,RelativeCoordinateSystem,RelativeCoordinateSystem,RelativeToZoneOrigin
! <Surface Heat Transfer Algorithm>, Value {CTF - ConductionTransferFunction | EMPD - MoisturePenetrationDepthConductionTransferFunction | CondFD - ConductionFiniteDifference | HAMT - CombinedHeatAndMoistureFiniteElement} - Description,Inside Surface Max Temperature Limit{C}, Surface Convection Coefficient Lower Limit {W/m2-K}, Surface Convection Coefficient Upper Limit {W/m2-K}
Surface Heat Transfer Algorithm, CTF - ConductionTransferFunction,200,0.10,1000.0
! <Shading Summary>, Number of Fixed Detached Shades, Number of Building Detached Shades, Number of Attached Shades
 Shading Summary,0,0,18
! <Zone Summary>, Number of Zones, Number of Zone Surfaces, Number of SubSurfaces
 Zone Summary,12,174,66
! <Zone Information>,Zone Name,North Axis {deg},Origin X-Coordinate {m},Origin Y-Coordinate {m},Origin Z-Coordinate {m},Centroid X-Coordinate {m},Centroid Y-Coordinate {m},Centroid Z-Coordinate {m},Type,Zone Multiplier,Zone List Multiplier,Minimum X {m},Maximum X {m},Minimum Y {m},Maximum Y {m},Minimum Z {m},Maximum Z {m},Ceiling Height {m},Volume {m3},Zone Inside Convection Algorithm {Simple-Detailed-CeilingDiffuser-TrombeWall},Zone Outside Convection Algorithm {Simple-Detailed-Tarp-MoWitt-DOE-2-BLAST}, Floor Area {m2},Exterior Gross Wall Area {m2},Exterior Net Wall Area {m2},Exterior Window Area {m2}, Number of Surfaces, Number of SubSurfaces, Number of Shading SubSurfaces,  Part of Total Building Area
 Zone Information, 01_A1,0.0,19.48,4.60,0.00,-8.26,15.54,1.68,1,1,1,-11.91,-4.60,11.61,19.48,0.00,3.35,3.35,193.12,CeilingDiffuser,DOE-2,57.60,56.55,48.29,6.31,7,3,2,Yes
 Zone Information, 01_A2,0.0,2.46,8.26,0.00,-8.32,6.52,1.68,1,1,1,-11.91,-4.60,2.46,11.61,0.00,3.35,3.35,208.70,TARP,DOE-2,62.25,85.84,77.06,6.83,8,4,2,Yes
 Zone Information, 01_B2,0.0,2.16,21.21,0.00,-21.12,6.09,1.68,1,1,1,-25.63,-14.96,2.16,11.61,0.00,3.35,3.35,324.46,CeilingDiffuser,DOE-2,96.77,99.13,83.98,13.20,10,7,2,Yes
 Zone Information, 01_C1,0.0,18.92,25.63,1.26E-030,-18.67,16.14,1.68,1,1,1,-25.63,-11.91,11.61,20.75,6.28E-031,3.35,3.35,380.95,CeilingDiffuser,DOE-2,113.62,96.74,80.17,14.63,11,8,2,Yes
 Zone Information, 02_A1,0.0,19.48,4.60,3.35,-8.26,15.54,5.03,1,1,1,-11.91,-4.60,11.61,19.48,3.35,6.71,3.35,193.12,CeilingDiffuser,DOE-2,57.60,56.55,47.80,6.79,7,3,2,Yes
 Zone Information, 02_A2,0.0,2.46,8.26,3.35,-8.32,6.52,5.03,1,1,1,-11.91,-4.60,2.46,11.61,3.35,6.71,3.35,208.70,TARP,DOE-2,62.25,85.84,76.33,7.56,8,4,2,Yes
 Zone Information, 02_B2,0.0,2.16,21.21,3.35,-21.12,6.09,5.03,1,1,1,-25.63,-14.96,2.16,11.61,3.35,6.71,3.35,324.46,CeilingDiffuser,DOE-2,96.77,99.13,81.69,15.49,10,7,2,Yes
 Zone Information, 02_C1,0.0,18.92,25.63,3.35,-18.67,16.14,5.03,1,1,1,-25.63,-11.91,11.61,20.75,3.35,6.71,3.35,380.95,CeilingDiffuser,DOE-2,113.62,96.74,77.21,17.58,11,8,2,Yes
 Zone Information, 03_A1,0.0,19.48,4.60,6.71,-8.26,15.54,8.38,1,1,1,-11.91,-4.60,11.61,19.48,6.71,10.06,3.35,193.12,CeilingDiffuser,DOE-2,57.60,56.55,47.80,6.79,7,3,0,Yes
 Zone Information, 03_A2,0.0,2.46,8.26,6.71,-8.32,6.52,8.38,1,1,1,-11.91,-4.60,2.46,11.61,6.71,10.06,3.35,208.70,CeilingDiffuser,DOE-2,62.25,85.84,76.33,7.56,8,4,0,Yes
 Zone Information, 03_B2,0.0,2.16,21.21,6.71,-21.12,6.09,8.38,1,1,1,-25.63,-14.96,2.16,11.61,6.71,10.06,3.35,324.46,CeilingDiffuser,DOE-2,96.77,99.13,81.69,15.49,10,7,0,Yes
 Zone Information, 03_C1,0.0,18.92,25.63,6.71,-18.67,16.14,8.38,1,1,1,-25.63,-11.91,11.61,20.75,6.71,10.06,3.35,380.95,CeilingDiffuser,DOE-2,113.62,96.74,77.21,17.58,11,8,2,Yes
! <Zone Internal Gains Nominal>,Zone Name, Floor Area {m2},# Occupants,Area per Occupant {m2/person},Occupant per Area {person/m2},Interior Lighting {W/m2},Electric Load {W/m2},Gas Load {W/m2},Other Load {W/m2},Hot Water Eq {W/m2},Steam Equipment {W/m2},Sum Loads per Area {W/m2},Outdoor Controlled Baseboard Heat
 Zone Internal Gains Nominal, 01_A1,57.60,1.6,37.161,2.691E-002,4.127,87.268,0.000,0.000,0.000,0.000,91.395,No
 Zone Internal Gains Nominal, 01_A2,62.25,1.6,40.158,2.490E-002,3.729,80.755,0.000,0.000,0.000,0.000,84.484,No
 Zone Internal Gains Nominal, 01_B2,96.77,2.5,39.180,2.552E-002,3.260,56.045,0.000,0.000,0.000,0.000,59.305,No
 Zone Internal Gains Nominal, 01_C1,113.62,3.4,33.516,2.984E-002,3.085,49.676,0.000,0.000,0.000,0.000,52.761,No
 Zone Internal Gains Nominal, 02_A1,57.60,1.6,37.161,2.691E-002,4.127,87.268,0.000,0.000,0.000,0.000,91.395,No
 Zone Internal Gains Nominal, 02_A2,62.25,1.6,40.158,2.490E-002,3.729,80.755,0.000,0.000,0.000,0.000,84.484,No
 Zone Internal Gains Nominal, 02_B2,96.77,2.5,39.180,2.552E-002,3.260,56.045,0.000,0.000,0.000,0.000,59.305,No
 Zone Internal Gains Nominal, 02_C1,113.62,3.4,33.516,2.984E-002,3.085,49.676,0.000,0.000,0.000,0.000,52.761,No
 Zone Internal Gains Nominal, 03_A1,57.60,1.6,37.161,2.691E-002,4.127,87.268,0.000,0.000,0.000,0.000,91.395,No
 Zone Internal Gains Nominal, 03_A2,62.25,1.6,40.158,2.490E-002,3.729,80.755,0.000,0.000,0.000,0.000,84.484,No
 Zone Internal Gains Nominal, 03_B2,96.77,2.5,39.180,2.552E-002,3.260,56.045,0.000,0.000,0.000,0.000,59.305,No
 Zone Internal Gains Nominal, 03_C1,113.62,3.4,33.516,2.984E-002,3.085,49.676,0.000,0.000,0.000,0.000,52.761,No
! <People Internal Gains Nominal>,Name,Schedule Name,Zone Name,Zone Floor Area {m2},# Zone Occupants,Number of People {},People/Floor Area {person/m2},Floor Area per person {m2/person},Fraction Radiant,Fraction Convected,Sensible Fraction Calculation,Activity level,ASHRAE 55 Warnings,Carbon Dioxide Generation Rate,Nominal Minimum Number of People,Nominal Maximum Number of People
 People Internal Gains Nominal, 01_A1 PEOPLE 1,OCCPROTOCOL,01_A1,57.60,1.6,1.6,2.691E-002,37.161,0.300,0.700,AutoCalculate,MIDRISEAPARTMENT ACTIVITYDOE,No,3.8200E-008,0,2
 People Internal Gains Nominal, 02_A1 PEOPLE 1,OCCPROTOCOL,02_A1,57.60,1.6,1.6,2.691E-002,37.161,0.300,0.700,AutoCalculate,MIDRISEAPARTMENT ACTIVITYDOE,No,3.8200E-008,0,2
 People Internal Gains Nominal, 03_A1 PEOPLE 1,OCCPROTOCOL,03_A1,57.60,1.6,1.6,2.691E-002,37.161,0.300,0.700,AutoCalculate,MIDRISEAPARTMENT ACTIVITYDOE,No,3.8200E-008,0,2
 People Internal Gains Nominal, 01_A2 PEOPLE 2,OCCPROTOCOL,01_A2,62.25,1.6,1.6,2.490E-002,40.158,0.300,0.700,AutoCalculate,MIDRISEAPARTMENT ACTIVITYDOE,No,3.8200E-008,0,2
 People Internal Gains Nominal, 02_A2 PEOPLE 2,OCCPROTOCOL,02_A2,62.25,1.6,1.6,2.490E-002,40.158,0.300,0.700,AutoCalculate,MIDRISEAPARTMENT ACTIVITYDOE,No,3.8200E-008,0,2
 People Internal Gains Nominal, 03_A2 PEOPLE 2,OCCPROTOCOL,03_A2,62.25,1.6,1.6,2.490E-002,40.158,0.300,0.700,AutoCalculate,MIDRISEAPARTMENT ACTIVITYDOE,No,3.8200E-008,0,2
 People Internal Gains Nominal, 01_B2 PEOPLE 6,OCCPROTOCOL,01_B2,96.77,2.5,2.5,2.552E-002,39.180,0.300,0.700,AutoCalculate,MIDRISEAPARTMENT ACTIVITYDOE,No,3.8200E-008,1,2
 People Internal Gains Nominal, 02_B2 PEOPLE 6,OCCPROTOCOL,02_B2,96.77,2.5,2.5,2.552E-002,39.180,0.300,0.700,AutoCalculate,MIDRISEAPARTMENT ACTIVITYDOE,No,3.8200E-008,1,2
 People Internal Gains Nominal, 03_B2 PEOPLE 6,OCCPROTOCOL,03_B2,96.77,2.5,2.5,2.552E-002,39.180,0.300,0.700,AutoCalculate,MIDRISEAPARTMENT ACTIVITYDOE,No,3.8200E-008,1,2
 People Internal Gains Nominal, 01_C1 PEOPLE 7,OCCPROTOCOL,01_C1,113.62,3.4,3.4,2.984E-002,33.516,0.300,0.700,AutoCalculate,MIDRISEAPARTMENT ACTIVITYDOE,No,3.8200E-008,1,3
 People Internal Gains Nominal, 02_C1 PEOPLE 7,OCCPROTOCOL,02_C1,113.62,3.4,3.4,2.984E-002,33.516,0.300,0.700,AutoCalculate,MIDRISEAPARTMENT ACTIVITYDOE,No,3.8200E-008,1,3
 People Internal Gains Nominal, 03_C1 PEOPLE 7,OCCPROTOCOL,03_C1,113.62,3.4,3.4,2.984E-002,33.516,0.300,0.700,AutoCalculate,MIDRISEAPARTMENT ACTIVITYDOE,No,3.8200E-008,1,3
! <Lights Internal Gains Nominal>,Name,Schedule Name,Zone Name,Zone Floor Area {m2},# Zone Occupants,Lighting Level {W},Lights/Floor Area {W/m2},Lights per person {W/person},Fraction Return Air,Fraction Radiant,Fraction Short Wave,Fraction Convected,Fraction Replaceable,End-Use Category,Nominal Minimum Lighting Level {W},Nominal Maximum Lighting Level {W}
 Lights Internal Gains Nominal, 01_A1 LIGHTS 2,MIDRISEAPARTMENT APARTMENT LIGHTDOE,01_A1,57.60,1.6,237.708,4.127,153.360,0.000,0.000,0.000,1.000,1.000,General,4.754,237.708
 Lights Internal Gains Nominal, 02_A1 LIGHTS 2,MIDRISEAPARTMENT APARTMENT LIGHTDOE,02_A1,57.60,1.6,237.708,4.127,153.360,0.000,0.000,0.000,1.000,1.000,General,4.754,237.708
 Lights Internal Gains Nominal, 03_A1 LIGHTS 2,MIDRISEAPARTMENT APARTMENT LIGHTDOE,03_A1,57.60,1.6,237.708,4.127,153.360,0.000,0.000,0.000,1.000,1.000,General,4.754,237.708
 Lights Internal Gains Nominal, 01_A2 LIGHTS 3,MIDRISEAPARTMENT APARTMENT LIGHTDOE,01_A2,62.25,1.6,232.088,3.729,149.734,0.000,0.000,0.000,1.000,1.000,General,4.642,232.088
 Lights Internal Gains Nominal, 02_A2 LIGHTS 3,MIDRISEAPARTMENT APARTMENT LIGHTDOE,02_A2,62.25,1.6,232.088,3.729,149.734,0.000,0.000,0.000,1.000,1.000,General,4.642,232.088
 Lights Internal Gains Nominal, 03_A2 LIGHTS 3,MIDRISEAPARTMENT APARTMENT LIGHTDOE,03_A2,62.25,1.6,232.088,3.729,149.734,0.000,0.000,0.000,1.000,1.000,General,4.642,232.088
 Lights Internal Gains Nominal, 01_B2 LIGHTS 7,MIDRISEAPARTMENT APARTMENT LIGHTDOE,01_B2,96.77,2.5,315.521,3.260,127.741,0.000,0.000,0.000,1.000,1.000,General,6.310,315.521
 Lights Internal Gains Nominal, 02_B2 LIGHTS 7,MIDRISEAPARTMENT APARTMENT LIGHTDOE,02_B2,96.77,2.5,315.521,3.260,127.741,0.000,0.000,0.000,1.000,1.000,General,6.310,315.521
 Lights Internal Gains Nominal, 03_B2 LIGHTS 7,MIDRISEAPARTMENT APARTMENT LIGHTDOE,03_B2,96.77,2.5,315.521,3.260,127.741,0.000,0.000,0.000,1.000,1.000,General,6.310,315.521
 Lights Internal Gains Nominal, 01_C1 LIGHTS 8,MIDRISEAPARTMENT APARTMENT LIGHTDOE,01_C1,113.62,3.4,350.512,3.085,103.396,0.000,0.000,0.000,1.000,1.000,General,7.010,350.512
 Lights Internal Gains Nominal, 02_C1 LIGHTS 8,MIDRISEAPARTMENT APARTMENT LIGHTDOE,02_C1,113.62,3.4,350.512,3.085,103.396,0.000,0.000,0.000,1.000,1.000,General,7.010,350.512
 Lights Internal Gains Nominal, 03_C1 LIGHTS 8,MIDRISEAPARTMENT APARTMENT LIGHTDOE,03_C1,113.62,3.4,350.512,3.085,103.396,0.000,0.000,0.000,1.000,1.000,General,7.010,350.512
! <ElectricEquipment Internal Gains Nominal>,Name,Schedule Name,Zone Name,Zone Floor Area {m2},# Zone Occupants,Equipment Level {W},Equipment/Floor Area {W/m2},Equipment per person {W/person},Fraction Latent,Fraction Radiant,Fraction Lost,Fraction Convected,End-Use SubCategory,Nominal Minimum Equipment Level {W},Nominal Maximum Equipment Level {W}
 ElectricEquipment Internal Gains Nominal, 01_A1 ELECTRIC EQUIPMENT 19,APARTMENTMIDRISE EQP_CLOTHESDRYER,01_A1,57.60,1.6,1699.556,29.506,1096.487,5.000E-002,0.150,0.000,0.800,General,3.399,1699.556
 ElectricEquipment Internal Gains Nominal, 02_A1 ELECTRIC EQUIPMENT 19,APARTMENTMIDRISE EQP_CLOTHESDRYER,02_A1,57.60,1.6,1699.556,29.506,1096.487,5.000E-002,0.150,0.000,0.800,General,3.399,1699.556
 ElectricEquipment Internal Gains Nominal, 03_A1 ELECTRIC EQUIPMENT 19,APARTMENTMIDRISE EQP_CLOTHESDRYER,03_A1,57.60,1.6,1699.556,29.506,1096.487,5.000E-002,0.150,0.000,0.800,General,3.399,1699.556
 ElectricEquipment Internal Gains Nominal, 01_A1 ELECTRIC EQUIPMENT 20,APARTMENTMIDRISE EQP_CLOTHESWASHER,01_A1,57.60,1.6,350.000,6.076,225.806,0.000,0.800,0.000,0.200,General,1.225,350.000
 ElectricEquipment Internal Gains Nominal, 02_A1 ELECTRIC EQUIPMENT 20,APARTMENTMIDRISE EQP_CLOTHESWASHER,02_A1,57.60,1.6,350.000,6.076,225.806,0.000,0.800,0.000,0.200,General,1.225,350.000
 ElectricEquipment Internal Gains Nominal, 03_A1 ELECTRIC EQUIPMENT 20,APARTMENTMIDRISE EQP_CLOTHESWASHER,03_A1,57.60,1.6,350.000,6.076,225.806,0.000,0.800,0.000,0.200,General,1.225,350.000
 ElectricEquipment Internal Gains Nominal, 01_A1 ELECTRIC EQUIPMENT 22,APARTMENTMIDRISE EQP_DISHWASHER,01_A1,57.60,1.6,780.000,13.542,503.226,0.150,0.600,0.000,0.250,General,2.730,780.000
 ElectricEquipment Internal Gains Nominal, 02_A1 ELECTRIC EQUIPMENT 22,APARTMENTMIDRISE EQP_DISHWASHER,02_A1,57.60,1.6,780.000,13.542,503.226,0.150,0.600,0.000,0.250,General,2.730,780.000
 ElectricEquipment Internal Gains Nominal, 03_A1 ELECTRIC EQUIPMENT 22,APARTMENTMIDRISE EQP_DISHWASHER,03_A1,57.60,1.6,780.000,13.542,503.226,0.150,0.600,0.000,0.250,General,2.730,780.000
 ElectricEquipment Internal Gains Nominal, 01_A1 ELECTRIC EQUIPMENT 23,APARTMENTMIDRISE EQP_RANGE,01_A1,57.60,1.6,250.000,4.340,161.290,0.200,0.730,0.000,7.000E-002,General,0.800,250.000
 ElectricEquipment Internal Gains Nominal, 02_A1 ELECTRIC EQUIPMENT 23,APARTMENTMIDRISE EQP_RANGE,02_A1,57.60,1.6,250.000,4.340,161.290,0.200,0.730,0.000,7.000E-002,General,0.800,250.000
 ElectricEquipment Internal Gains Nominal, 03_A1 ELECTRIC EQUIPMENT 23,APARTMENTMIDRISE EQP_RANGE,03_A1,57.60,1.6,250.000,4.340,161.290,0.200,0.730,0.000,7.000E-002,General,0.800,250.000
 ElectricEquipment Internal Gains Nominal, 01_A1 ELECTRIC EQUIPMENT 24,APARTMENTMIDRISE EQP_RANGE,01_A1,57.60,1.6,176.471,3.064,113.852,0.300,0.400,0.000,0.300,General,0.565,176.471
 ElectricEquipment Internal Gains Nominal, 02_A1 ELECTRIC EQUIPMENT 24,APARTMENTMIDRISE EQP_RANGE,02_A1,57.60,1.6,176.471,3.064,113.852,0.300,0.400,0.000,0.300,General,0.565,176.471
 ElectricEquipment Internal Gains Nominal, 03_A1 ELECTRIC EQUIPMENT 24,APARTMENTMIDRISE EQP_RANGE,03_A1,57.60,1.6,176.471,3.064,113.852,0.300,0.400,0.000,0.300,General,0.565,176.471
 ElectricEquipment Internal Gains Nominal, 01_A1 ELECTRIC EQUIPMENT 25,APARTMENTMIDRISE EQP_REFRIGERATOR,01_A1,57.60,1.6,1200.000,20.833,774.194,0.000,1.000,0.000,0.000,General,43.476,1200.000
 ElectricEquipment Internal Gains Nominal, 02_A1 ELECTRIC EQUIPMENT 25,APARTMENTMIDRISE EQP_REFRIGERATOR,02_A1,57.60,1.6,1200.000,20.833,774.194,0.000,1.000,0.000,0.000,General,43.476,1200.000
 ElectricEquipment Internal Gains Nominal, 03_A1 ELECTRIC EQUIPMENT 25,APARTMENTMIDRISE EQP_REFRIGERATOR,03_A1,57.60,1.6,1200.000,20.833,774.194,0.000,1.000,0.000,0.000,General,43.476,1200.000
 ElectricEquipment Internal Gains Nominal, 01_A1 ELECTRIC EQUIPMENT 26,APARTMENTMIDRISE EQP_APT_SCH,01_A1,57.60,1.6,350.000,6.076,225.806,0.200,0.730,0.000,7.000E-002,General,8.540,350.000
 ElectricEquipment Internal Gains Nominal, 02_A1 ELECTRIC EQUIPMENT 26,APARTMENTMIDRISE EQP_APT_SCH,02_A1,57.60,1.6,350.000,6.076,225.806,0.200,0.730,0.000,7.000E-002,General,8.540,350.000
 ElectricEquipment Internal Gains Nominal, 03_A1 ELECTRIC EQUIPMENT 26,APARTMENTMIDRISE EQP_APT_SCH,03_A1,57.60,1.6,350.000,6.076,225.806,0.200,0.730,0.000,7.000E-002,General,8.540,350.000
 ElectricEquipment Internal Gains Nominal, 01_A1 ELECTRIC EQUIPMENT 3,APARTMENTMIDRISE EQP_RANGE,01_A1,57.60,1.6,220.588,3.830,142.315,0.300,0.400,0.000,0.300,General,0.706,220.588
 ElectricEquipment Internal Gains Nominal, 02_A1 ELECTRIC EQUIPMENT 3,APARTMENTMIDRISE EQP_RANGE,02_A1,57.60,1.6,220.588,3.830,142.315,0.300,0.400,0.000,0.300,General,0.706,220.588
 ElectricEquipment Internal Gains Nominal, 03_A1 ELECTRIC EQUIPMENT 3,APARTMENTMIDRISE EQP_RANGE,03_A1,57.60,1.6,220.588,3.830,142.315,0.300,0.400,0.000,0.300,General,0.706,220.588
 ElectricEquipment Internal Gains Nominal, 01_A2 ELECTRIC EQUIPMENT 13,APARTMENTMIDRISE EQP_RANGE,01_A2,62.25,1.6,176.471,2.835,113.852,0.300,0.400,0.000,0.300,General,0.565,176.471
 ElectricEquipment Internal Gains Nominal, 02_A2 ELECTRIC EQUIPMENT 13,APARTMENTMIDRISE EQP_RANGE,02_A2,62.25,1.6,176.471,2.835,113.852,0.300,0.400,0.000,0.300,General,0.565,176.471
 ElectricEquipment Internal Gains Nominal, 03_A2 ELECTRIC EQUIPMENT 13,APARTMENTMIDRISE EQP_RANGE,03_A2,62.25,1.6,176.471,2.835,113.852,0.300,0.400,0.000,0.300,General,0.565,176.471
 ElectricEquipment Internal Gains Nominal, 01_A2 ELECTRIC EQUIPMENT 27,APARTMENTMIDRISE EQP_CLOTHESDRYER,01_A2,62.25,1.6,1699.556,27.304,1096.487,5.000E-002,0.150,0.000,0.800,General,3.399,1699.556
 ElectricEquipment Internal Gains Nominal, 02_A2 ELECTRIC EQUIPMENT 27,APARTMENTMIDRISE EQP_CLOTHESDRYER,02_A2,62.25,1.6,1699.556,27.304,1096.487,5.000E-002,0.150,0.000,0.800,General,3.399,1699.556
 ElectricEquipment Internal Gains Nominal, 03_A2 ELECTRIC EQUIPMENT 27,APARTMENTMIDRISE EQP_CLOTHESDRYER,03_A2,62.25,1.6,1699.556,27.304,1096.487,5.000E-002,0.150,0.000,0.800,General,3.399,1699.556
 ElectricEquipment Internal Gains Nominal, 01_A2 ELECTRIC EQUIPMENT 28,APARTMENTMIDRISE EQP_CLOTHESWASHER,01_A2,62.25,1.6,350.000,5.623,225.806,0.000,0.800,0.000,0.200,General,1.225,350.000
 ElectricEquipment Internal Gains Nominal, 02_A2 ELECTRIC EQUIPMENT 28,APARTMENTMIDRISE EQP_CLOTHESWASHER,02_A2,62.25,1.6,350.000,5.623,225.806,0.000,0.800,0.000,0.200,General,1.225,350.000
 ElectricEquipment Internal Gains Nominal, 03_A2 ELECTRIC EQUIPMENT 28,APARTMENTMIDRISE EQP_CLOTHESWASHER,03_A2,62.25,1.6,350.000,5.623,225.806,0.000,0.800,0.000,0.200,General,1.225,350.000
 ElectricEquipment Internal Gains Nominal, 01_A2 ELECTRIC EQUIPMENT 30,APARTMENTMIDRISE EQP_DISHWASHER,01_A2,62.25,1.6,780.000,12.531,503.226,0.150,0.600,0.000,0.250,General,2.730,780.000
 ElectricEquipment Internal Gains Nominal, 02_A2 ELECTRIC EQUIPMENT 30,APARTMENTMIDRISE EQP_DISHWASHER,02_A2,62.25,1.6,780.000,12.531,503.226,0.150,0.600,0.000,0.250,General,2.730,780.000
 ElectricEquipment Internal Gains Nominal, 03_A2 ELECTRIC EQUIPMENT 30,APARTMENTMIDRISE EQP_DISHWASHER,03_A2,62.25,1.6,780.000,12.531,503.226,0.150,0.600,0.000,0.250,General,2.730,780.000
 ElectricEquipment Internal Gains Nominal, 01_A2 ELECTRIC EQUIPMENT 31,APARTMENTMIDRISE EQP_RANGE,01_A2,62.25,1.6,250.000,4.016,161.290,0.200,0.730,0.000,7.000E-002,General,0.800,250.000
 ElectricEquipment Internal Gains Nominal, 02_A2 ELECTRIC EQUIPMENT 31,APARTMENTMIDRISE EQP_RANGE,02_A2,62.25,1.6,250.000,4.016,161.290,0.200,0.730,0.000,7.000E-002,General,0.800,250.000
 ElectricEquipment Internal Gains Nominal, 03_A2 ELECTRIC EQUIPMENT 31,APARTMENTMIDRISE EQP_RANGE,03_A2,62.25,1.6,250.000,4.016,161.290,0.200,0.730,0.000,7.000E-002,General,0.800,250.000
 ElectricEquipment Internal Gains Nominal, 01_A2 ELECTRIC EQUIPMENT 32,APARTMENTMIDRISE EQP_RANGE,01_A2,62.25,1.6,220.588,3.544,142.315,0.300,0.400,0.000,0.300,General,0.706,220.588
 ElectricEquipment Internal Gains Nominal, 02_A2 ELECTRIC EQUIPMENT 32,APARTMENTMIDRISE EQP_RANGE,02_A2,62.25,1.6,220.588,3.544,142.315,0.300,0.400,0.000,0.300,General,0.706,220.588
 ElectricEquipment Internal Gains Nominal, 03_A2 ELECTRIC EQUIPMENT 32,APARTMENTMIDRISE EQP_RANGE,03_A2,62.25,1.6,220.588,3.544,142.315,0.300,0.400,0.000,0.300,General,0.706,220.588
 ElectricEquipment Internal Gains Nominal, 01_A2 ELECTRIC EQUIPMENT 33,APARTMENTMIDRISE EQP_REFRIGERATOR,01_A2,62.25,1.6,1200.000,19.279,774.194,0.000,1.000,0.000,0.000,General,43.476,1200.000
 ElectricEquipment Internal Gains Nominal, 02_A2 ELECTRIC EQUIPMENT 33,APARTMENTMIDRISE EQP_REFRIGERATOR,02_A2,62.25,1.6,1200.000,19.279,774.194,0.000,1.000,0.000,0.000,General,43.476,1200.000
 ElectricEquipment Internal Gains Nominal, 03_A2 ELECTRIC EQUIPMENT 33,APARTMENTMIDRISE EQP_REFRIGERATOR,03_A2,62.25,1.6,1200.000,19.279,774.194,0.000,1.000,0.000,0.000,General,43.476,1200.000
 ElectricEquipment Internal Gains Nominal, 01_A2 ELECTRIC EQUIPMENT 34,APARTMENTMIDRISE EQP_APT_SCH,01_A2,62.25,1.6,350.000,5.623,225.806,0.200,0.730,0.000,7.000E-002,General,8.540,350.000
 ElectricEquipment Internal Gains Nominal, 02_A2 ELECTRIC EQUIPMENT 34,APARTMENTMIDRISE EQP_APT_SCH,02_A2,62.25,1.6,350.000,5.623,225.806,0.200,0.730,0.000,7.000E-002,General,8.540,350.000
 ElectricEquipment Internal Gains Nominal, 03_A2 ELECTRIC EQUIPMENT 34,APARTMENTMIDRISE EQP_APT_SCH,03_A2,62.25,1.6,350.000,5.623,225.806,0.200,0.730,0.000,7.000E-002,General,8.540,350.000
 ElectricEquipment Internal Gains Nominal, 01_B2 ELECTRIC EQUIPMENT 45,APARTMENTMIDRISE EQP_RANGE,01_B2,96.77,2.5,397.059,4.103,160.753,0.300,0.400,0.000,0.300,General,1.271,397.059
 ElectricEquipment Internal Gains Nominal, 02_B2 ELECTRIC EQUIPMENT 45,APARTMENTMIDRISE EQP_RANGE,02_B2,96.77,2.5,397.059,4.103,160.753,0.300,0.400,0.000,0.300,General,1.271,397.059
 ElectricEquipment Internal Gains Nominal, 03_B2 ELECTRIC EQUIPMENT 45,APARTMENTMIDRISE EQP_RANGE,03_B2,96.77,2.5,397.059,4.103,160.753,0.300,0.400,0.000,0.300,General,1.271,397.059
 ElectricEquipment Internal Gains Nominal, 01_B2 ELECTRIC EQUIPMENT 60,APARTMENTMIDRISE EQP_CLOTHESDRYER,01_B2,96.77,2.5,1699.556,17.562,688.079,5.000E-002,0.150,0.000,0.800,General,3.399,1699.556
 ElectricEquipment Internal Gains Nominal, 02_B2 ELECTRIC EQUIPMENT 60,APARTMENTMIDRISE EQP_CLOTHESDRYER,02_B2,96.77,2.5,1699.556,17.562,688.079,5.000E-002,0.150,0.000,0.800,General,3.399,1699.556
 ElectricEquipment Internal Gains Nominal, 03_B2 ELECTRIC EQUIPMENT 60,APARTMENTMIDRISE EQP_CLOTHESDRYER,03_B2,96.77,2.5,1699.556,17.562,688.079,5.000E-002,0.150,0.000,0.800,General,3.399,1699.556
 ElectricEquipment Internal Gains Nominal, 01_B2 ELECTRIC EQUIPMENT 61,APARTMENTMIDRISE EQP_CLOTHESWASHER,01_B2,96.77,2.5,350.000,3.617,141.700,0.000,0.800,0.000,0.200,General,1.225,350.000
 ElectricEquipment Internal Gains Nominal, 02_B2 ELECTRIC EQUIPMENT 61,APARTMENTMIDRISE EQP_CLOTHESWASHER,02_B2,96.77,2.5,350.000,3.617,141.700,0.000,0.800,0.000,0.200,General,1.225,350.000
 ElectricEquipment Internal Gains Nominal, 03_B2 ELECTRIC EQUIPMENT 61,APARTMENTMIDRISE EQP_CLOTHESWASHER,03_B2,96.77,2.5,350.000,3.617,141.700,0.000,0.800,0.000,0.200,General,1.225,350.000
 ElectricEquipment Internal Gains Nominal, 01_B2 ELECTRIC EQUIPMENT 63,APARTMENTMIDRISE EQP_DISHWASHER,01_B2,96.77,2.5,780.000,8.060,315.789,0.150,0.600,0.000,0.250,General,2.730,780.000
 ElectricEquipment Internal Gains Nominal, 02_B2 ELECTRIC EQUIPMENT 63,APARTMENTMIDRISE EQP_DISHWASHER,02_B2,96.77,2.5,780.000,8.060,315.789,0.150,0.600,0.000,0.250,General,2.730,780.000
 ElectricEquipment Internal Gains Nominal, 03_B2 ELECTRIC EQUIPMENT 63,APARTMENTMIDRISE EQP_DISHWASHER,03_B2,96.77,2.5,780.000,8.060,315.789,0.150,0.600,0.000,0.250,General,2.730,780.000
 ElectricEquipment Internal Gains Nominal, 01_B2 ELECTRIC EQUIPMENT 64,APARTMENTMIDRISE EQP_RANGE,01_B2,96.77,2.5,250.000,2.583,101.215,0.200,0.730,0.000,7.000E-002,General,0.800,250.000
 ElectricEquipment Internal Gains Nominal, 02_B2 ELECTRIC EQUIPMENT 64,APARTMENTMIDRISE EQP_RANGE,02_B2,96.77,2.5,250.000,2.583,101.215,0.200,0.730,0.000,7.000E-002,General,0.800,250.000
 ElectricEquipment Internal Gains Nominal, 03_B2 ELECTRIC EQUIPMENT 64,APARTMENTMIDRISE EQP_RANGE,03_B2,96.77,2.5,250.000,2.583,101.215,0.200,0.730,0.000,7.000E-002,General,0.800,250.000
 ElectricEquipment Internal Gains Nominal, 01_B2 ELECTRIC EQUIPMENT 65,APARTMENTMIDRISE EQP_RANGE,01_B2,96.77,2.5,220.588,2.279,89.307,0.300,0.400,0.000,0.300,General,0.706,220.588
 ElectricEquipment Internal Gains Nominal, 02_B2 ELECTRIC EQUIPMENT 65,APARTMENTMIDRISE EQP_RANGE,02_B2,96.77,2.5,220.588,2.279,89.307,0.300,0.400,0.000,0.300,General,0.706,220.588
 ElectricEquipment Internal Gains Nominal, 03_B2 ELECTRIC EQUIPMENT 65,APARTMENTMIDRISE EQP_RANGE,03_B2,96.77,2.5,220.588,2.279,89.307,0.300,0.400,0.000,0.300,General,0.706,220.588
 ElectricEquipment Internal Gains Nominal, 01_B2 ELECTRIC EQUIPMENT 66,APARTMENTMIDRISE EQP_RANGE,01_B2,96.77,2.5,176.471,1.824,71.446,0.300,0.400,0.000,0.300,General,0.565,176.471
 ElectricEquipment Internal Gains Nominal, 02_B2 ELECTRIC EQUIPMENT 66,APARTMENTMIDRISE EQP_RANGE,02_B2,96.77,2.5,176.471,1.824,71.446,0.300,0.400,0.000,0.300,General,0.565,176.471
 ElectricEquipment Internal Gains Nominal, 03_B2 ELECTRIC EQUIPMENT 66,APARTMENTMIDRISE EQP_RANGE,03_B2,96.77,2.5,176.471,1.824,71.446,0.300,0.400,0.000,0.300,General,0.565,176.471
 ElectricEquipment Internal Gains Nominal, 01_B2 ELECTRIC EQUIPMENT 67,APARTMENTMIDRISE EQP_REFRIGERATOR,01_B2,96.77,2.5,1200.000,12.400,485.830,0.000,1.000,0.000,0.000,General,43.476,1200.000
 ElectricEquipment Internal Gains Nominal, 02_B2 ELECTRIC EQUIPMENT 67,APARTMENTMIDRISE EQP_REFRIGERATOR,02_B2,96.77,2.5,1200.000,12.400,485.830,0.000,1.000,0.000,0.000,General,43.476,1200.000
 ElectricEquipment Internal Gains Nominal, 03_B2 ELECTRIC EQUIPMENT 67,APARTMENTMIDRISE EQP_REFRIGERATOR,03_B2,96.77,2.5,1200.000,12.400,485.830,0.000,1.000,0.000,0.000,General,43.476,1200.000
 ElectricEquipment Internal Gains Nominal, 01_B2 ELECTRIC EQUIPMENT 68,APARTMENTMIDRISE EQP_APT_SCH,01_B2,96.77,2.5,350.000,3.617,141.700,0.200,0.730,0.000,7.000E-002,General,8.540,350.000
 ElectricEquipment Internal Gains Nominal, 02_B2 ELECTRIC EQUIPMENT 68,APARTMENTMIDRISE EQP_APT_SCH,02_B2,96.77,2.5,350.000,3.617,141.700,0.200,0.730,0.000,7.000E-002,General,8.540,350.000
 ElectricEquipment Internal Gains Nominal, 03_B2 ELECTRIC EQUIPMENT 68,APARTMENTMIDRISE EQP_APT_SCH,03_B2,96.77,2.5,350.000,3.617,141.700,0.200,0.730,0.000,7.000E-002,General,8.540,350.000
 ElectricEquipment Internal Gains Nominal, 01_C1 ELECTRIC EQUIPMENT 1,APARTMENTMIDRISE EQP_CLOTHESDRYER,01_C1,113.62,3.4,1699.556,14.958,501.344,5.000E-002,0.150,0.000,0.800,General,3.399,1699.556
 ElectricEquipment Internal Gains Nominal, 02_C1 ELECTRIC EQUIPMENT 1,APARTMENTMIDRISE EQP_CLOTHESDRYER,02_C1,113.62,3.4,1699.556,14.958,501.344,5.000E-002,0.150,0.000,0.800,General,3.399,1699.556
 ElectricEquipment Internal Gains Nominal, 03_C1 ELECTRIC EQUIPMENT 1,APARTMENTMIDRISE EQP_CLOTHESDRYER,03_C1,113.62,3.4,1699.556,14.958,501.344,5.000E-002,0.150,0.000,0.800,General,3.399,1699.556
 ElectricEquipment Internal Gains Nominal, 01_C1 ELECTRIC EQUIPMENT 10,APARTMENTMIDRISE EQP_RANGE,01_C1,113.62,3.4,397.059,3.495,117.126,0.300,0.400,0.000,0.300,General,1.271,397.059
 ElectricEquipment Internal Gains Nominal, 02_C1 ELECTRIC EQUIPMENT 10,APARTMENTMIDRISE EQP_RANGE,02_C1,113.62,3.4,397.059,3.495,117.126,0.300,0.400,0.000,0.300,General,1.271,397.059
 ElectricEquipment Internal Gains Nominal, 03_C1 ELECTRIC EQUIPMENT 10,APARTMENTMIDRISE EQP_RANGE,03_C1,113.62,3.4,397.059,3.495,117.126,0.300,0.400,0.000,0.300,General,1.271,397.059
 ElectricEquipment Internal Gains Nominal, 01_C1 ELECTRIC EQUIPMENT 2,APARTMENTMIDRISE EQP_CLOTHESWASHER,01_C1,113.62,3.4,350.000,3.080,103.245,0.000,0.800,0.000,0.200,General,1.225,350.000
 ElectricEquipment Internal Gains Nominal, 02_C1 ELECTRIC EQUIPMENT 2,APARTMENTMIDRISE EQP_CLOTHESWASHER,02_C1,113.62,3.4,350.000,3.080,103.245,0.000,0.800,0.000,0.200,General,1.225,350.000
 ElectricEquipment Internal Gains Nominal, 03_C1 ELECTRIC EQUIPMENT 2,APARTMENTMIDRISE EQP_CLOTHESWASHER,03_C1,113.62,3.4,350.000,3.080,103.245,0.000,0.800,0.000,0.200,General,1.225,350.000
 ElectricEquipment Internal Gains Nominal, 01_C1 ELECTRIC EQUIPMENT 4,APARTMENTMIDRISE EQP_DISHWASHER,01_C1,113.62,3.4,780.000,6.865,230.088,0.150,0.600,0.000,0.250,General,2.730,780.000
 ElectricEquipment Internal Gains Nominal, 02_C1 ELECTRIC EQUIPMENT 4,APARTMENTMIDRISE EQP_DISHWASHER,02_C1,113.62,3.4,780.000,6.865,230.088,0.150,0.600,0.000,0.250,General,2.730,780.000
 ElectricEquipment Internal Gains Nominal, 03_C1 ELECTRIC EQUIPMENT 4,APARTMENTMIDRISE EQP_DISHWASHER,03_C1,113.62,3.4,780.000,6.865,230.088,0.150,0.600,0.000,0.250,General,2.730,780.000
 ElectricEquipment Internal Gains Nominal, 01_C1 ELECTRIC EQUIPMENT 5,APARTMENTMIDRISE EQP_RANGE,01_C1,113.62,3.4,220.588,1.941,65.070,0.300,0.400,0.000,0.300,General,0.706,220.588
 ElectricEquipment Internal Gains Nominal, 02_C1 ELECTRIC EQUIPMENT 5,APARTMENTMIDRISE EQP_RANGE,02_C1,113.62,3.4,220.588,1.941,65.070,0.300,0.400,0.000,0.300,General,0.706,220.588
 ElectricEquipment Internal Gains Nominal, 03_C1 ELECTRIC EQUIPMENT 5,APARTMENTMIDRISE EQP_RANGE,03_C1,113.62,3.4,220.588,1.941,65.070,0.300,0.400,0.000,0.300,General,0.706,220.588
 ElectricEquipment Internal Gains Nominal, 01_C1 ELECTRIC EQUIPMENT 53,APARTMENTMIDRISE EQP_RANGE,01_C1,113.62,3.4,220.588,1.941,65.070,0.300,0.400,0.000,0.300,General,0.706,220.588
 ElectricEquipment Internal Gains Nominal, 02_C1 ELECTRIC EQUIPMENT 53,APARTMENTMIDRISE EQP_RANGE,02_C1,113.62,3.4,220.588,1.941,65.070,0.300,0.400,0.000,0.300,General,0.706,220.588
 ElectricEquipment Internal Gains Nominal, 03_C1 ELECTRIC EQUIPMENT 53,APARTMENTMIDRISE EQP_RANGE,03_C1,113.62,3.4,220.588,1.941,65.070,0.300,0.400,0.000,0.300,General,0.706,220.588
 ElectricEquipment Internal Gains Nominal, 01_C1 ELECTRIC EQUIPMENT 6,APARTMENTMIDRISE EQP_RANGE,01_C1,113.62,3.4,250.000,2.200,73.746,0.200,0.730,0.000,7.000E-002,General,0.800,250.000
 ElectricEquipment Internal Gains Nominal, 02_C1 ELECTRIC EQUIPMENT 6,APARTMENTMIDRISE EQP_RANGE,02_C1,113.62,3.4,250.000,2.200,73.746,0.200,0.730,0.000,7.000E-002,General,0.800,250.000
 ElectricEquipment Internal Gains Nominal, 03_C1 ELECTRIC EQUIPMENT 6,APARTMENTMIDRISE EQP_RANGE,03_C1,113.62,3.4,250.000,2.200,73.746,0.200,0.730,0.000,7.000E-002,General,0.800,250.000
 ElectricEquipment Internal Gains Nominal, 01_C1 ELECTRIC EQUIPMENT 7,APARTMENTMIDRISE EQP_RANGE,01_C1,113.62,3.4,176.471,1.553,52.056,0.300,0.400,0.000,0.300,General,0.565,176.471
 ElectricEquipment Internal Gains Nominal, 02_C1 ELECTRIC EQUIPMENT 7,APARTMENTMIDRISE EQP_RANGE,02_C1,113.62,3.4,176.471,1.553,52.056,0.300,0.400,0.000,0.300,General,0.565,176.471
 ElectricEquipment Internal Gains Nominal, 03_C1 ELECTRIC EQUIPMENT 7,APARTMENTMIDRISE EQP_RANGE,03_C1,113.62,3.4,176.471,1.553,52.056,0.300,0.400,0.000,0.300,General,0.565,176.471
 ElectricEquipment Internal Gains Nominal, 01_C1 ELECTRIC EQUIPMENT 8,APARTMENTMIDRISE EQP_REFRIGERATOR,01_C1,113.62,3.4,1200.000,10.561,353.982,0.000,1.000,0.000,0.000,General,43.476,1200.000
 ElectricEquipment Internal Gains Nominal, 02_C1 ELECTRIC EQUIPMENT 8,APARTMENTMIDRISE EQP_REFRIGERATOR,02_C1,113.62,3.4,1200.000,10.561,353.982,0.000,1.000,0.000,0.000,General,43.476,1200.000
 ElectricEquipment Internal Gains Nominal, 03_C1 ELECTRIC EQUIPMENT 8,APARTMENTMIDRISE EQP_REFRIGERATOR,03_C1,113.62,3.4,1200.000,10.561,353.982,0.000,1.000,0.000,0.000,General,43.476,1200.000
 ElectricEquipment Internal Gains Nominal, 01_C1 ELECTRIC EQUIPMENT 9,APARTMENTMIDRISE EQP_APT_SCH,01_C1,113.62,3.4,350.000,3.080,103.245,0.200,0.730,0.000,7.000E-002,General,8.540,350.000
 ElectricEquipment Internal Gains Nominal, 02_C1 ELECTRIC EQUIPMENT 9,APARTMENTMIDRISE EQP_APT_SCH,02_C1,113.62,3.4,350.000,3.080,103.245,0.200,0.730,0.000,7.000E-002,General,8.540,350.000
 ElectricEquipment Internal Gains Nominal, 03_C1 ELECTRIC EQUIPMENT 9,APARTMENTMIDRISE EQP_APT_SCH,03_C1,113.62,3.4,350.000,3.080,103.245,0.200,0.730,0.000,7.000E-002,General,8.540,350.000
! <Shadowing/Sun Position Calculations Annual Simulations>, Calculation Method, Value {days}, Allowable Number Figures in Shadow Overlap {}, Polygon Clipping Algorithm, Sky Diffuse Modeling Algorithm, External Shading Calculation Method, Output External Shading Calculation Results, Disable Self-Shading Within Shading Zone Groups, Disable Self-Shading From Shading Zone Groups to Other Zones
Shadowing/Sun Position Calculations Annual Simulations,AverageOverDaysInFrequency,20,15000,SutherlandHodgman,SimpleSkyDiffuseModeling,InternalCalculation,No,No,No
! <RoomAir Model>, Zone Name, Mixing/Mundt/UCSDDV/UCSDCV/UCSDUFI/UCSDUFE/User Defined
RoomAir Model,01_A1,Mixing/Well-Stirred
RoomAir Model,01_A2,Mixing/Well-Stirred
RoomAir Model,01_B2,Mixing/Well-Stirred
RoomAir Model,01_C1,Mixing/Well-Stirred
RoomAir Model,02_A1,Mixing/Well-Stirred
RoomAir Model,02_A2,Mixing/Well-Stirred
RoomAir Model,02_B2,Mixing/Well-Stirred
RoomAir Model,02_C1,Mixing/Well-Stirred
RoomAir Model,03_A1,Mixing/Well-Stirred
RoomAir Model,03_A2,Mixing/Well-Stirred
RoomAir Model,03_B2,Mixing/Well-Stirred
RoomAir Model,03_C1,Mixing/Well-Stirred
! <AirflowNetwork Model:Control>, No Multizone or Distribution/Multizone with Distribution/Multizone without Distribution/Multizone with Distribution only during Fan Operation
AirflowNetwork Model:Control,NoMultizoneOrDistribution
! <Zone Volume Capacitance Multiplier>, Sensible Heat Capacity Multiplier, Moisture Capacity Multiplier, Carbon Dioxide Capacity Multiplier, Generic Contaminant Capacity Multiplier
Zone Volume Capacitance Multiplier,   1.000 ,   1.000,   1.000,   1.000
! <Zone Sizing DOAS Inputs>, Zone Name, DOAS Design Control Strategy, DOAS Design Low Setpoint Temperature {C}, DOAS Design High Setpoint Temperature {C} 
 Zone Sizing DOAS Inputs, 01_A1, NeutralSupplyAir, 21.100, 23.900
! <Load Timesteps in Zone Design Calculation Averaging Window>, Value
 Load Timesteps in Zone Design Calculation Averaging Window,    6
! <Heating Sizing Factor Information>, Sizing Factor ID, Value
 Heating Sizing Factor Information, Global,   1.2500    
 Heating Sizing Factor Information, Zone 01_A1,   1.2500    
 Heating Sizing Factor Information, Zone 01_A2,   1.2500    
 Heating Sizing Factor Information, Zone 01_B2,   1.2500    
 Heating Sizing Factor Information, Zone 01_C1,   1.2500    
 Heating Sizing Factor Information, Zone 02_A1,   1.2500    
 Heating Sizing Factor Information, Zone 02_A2,   1.2500    
 Heating Sizing Factor Information, Zone 02_B2,   1.2500    
 Heating Sizing Factor Information, Zone 02_C1,   1.2500    
 Heating Sizing Factor Information, Zone 03_A1,   1.2500    
 Heating Sizing Factor Information, Zone 03_A2,   1.2500    
 Heating Sizing Factor Information, Zone 03_B2,   1.2500    
 Heating Sizing Factor Information, Zone 03_C1,   1.2500    
! <Cooling Sizing Factor Information>, Sizing Factor ID, Value
 Cooling Sizing Factor Information, Global,   1.1500    
 Cooling Sizing Factor Information, Zone 01_A1,   1.1500    
 Cooling Sizing Factor Information, Zone 01_A2,   1.1500    
 Cooling Sizing Factor Information, Zone 01_B2,   1.1500    
 Cooling Sizing Factor Information, Zone 01_C1,   1.1500    
 Cooling Sizing Factor Information, Zone 02_A1,   1.1500    
 Cooling Sizing Factor Information, Zone 02_A2,   1.1500    
 Cooling Sizing Factor Information, Zone 02_B2,   1.1500    
 Cooling Sizing Factor Information, Zone 02_C1,   1.1500    
 Cooling Sizing Factor Information, Zone 03_A1,   1.1500    
 Cooling Sizing Factor Information, Zone 03_A2,   1.1500    
 Cooling Sizing Factor Information, Zone 03_B2,   1.1500    
 Cooling Sizing Factor Information, Zone 03_C1,   1.1500    
! <Zone Sizing Information>, Zone Name, Load Type, Calc Des Load {W}, User Des Load {W}, Calc Des Air Flow Rate {m3/s}, User Des Air Flow Rate {m3/s}, Design Day Name, Date/Time of Peak, Temperature at Peak {C}, Humidity Ratio at Peak {kgWater/kgDryAir}, Floor Area {m2}, # Occupants, Calc Outdoor Air Flow Rate {m3/s}, Calc DOAS Heat Addition Rate {W}
 Zone Sizing Information, 01_A1, Cooling, 2828.79790, 3253.11759, 0.16640, 0.19136, ANCHORAGEMERRILLFIELDANNCLG.4CONDNSDBMWB, 7/21 19:00:00, 20.04800, 7.75780E-003, 57.59988, 1.55000, 2.35974E-002, -67.32907
 Zone Sizing Information, 01_A1, Heating, 32.39122, 40.48902, 2.38797E-003, 2.35974E-002, ANCHORAGEMERRILLFIELDANNHTG99.6CONDNSDB, 1/21 01:50:00, -23.90000, 4.35879E-004, 57.59988, 1.55000, 2.35974E-002, -66.43111
 Zone Sizing Information, 01_A2, Cooling, 2978.60999, 3425.40149, 0.17527, 0.20156, ANCHORAGEMERRILLFIELDANNCLG.4CONDNSDBMWB, 7/21 19:00:00, 20.04800, 7.75780E-003, 62.24504, 1.55000, 2.35974E-002, 0.00000
 Zone Sizing Information, 01_A2, Heating, 0.00000, 0.00000, 0.00000, 0.32470, ANCHORAGEMERRILLFIELDANNHTG99.6CONDNSDB, , -23.90000, 4.35879E-004, 62.24504, 1.55000, 2.35974E-002, 0.00000
 Zone Sizing Information, 01_B2, Cooling, 3900.31692, 4485.36446, 0.22948, 0.26390, ANCHORAGEMERRILLFIELDANNCLG.4CONDNSDBMWB, 7/21 19:00:00, 20.04800, 7.75780E-003, 96.77400, 2.47000, 2.35974E-002, 0.00000
 Zone Sizing Information, 01_B2, Heating, 63.48617, 79.35771, 3.73790E-003, 2.35974E-002, ANCHORAGEMERRILLFIELDANNHTG99.6CONDNSDB, 1/21 05:00:00, -23.90000, 4.35879E-004, 96.77400, 2.47000, 2.35974E-002, 0.00000
 Zone Sizing Information, 01_C1, Cooling, 3517.96198, 4045.65628, 0.20699, 0.23803, ANCHORAGEMERRILLFIELDANNCLG.4CONDNSDBMWB, 7/21 19:00:00, 20.04800, 7.75780E-003, 113.62042, 3.39000, 2.35974E-002, 0.00000
 Zone Sizing Information, 01_C1, Heating, 15.83100, 19.78875, 9.32090E-004, 2.35974E-002, ANCHORAGEMERRILLFIELDANNHTG99.6CONDNSDB, 1/21 05:00:00, -23.90000, 4.35879E-004, 113.62042, 3.39000, 2.35974E-002, 0.00000
 Zone Sizing Information, 02_A1, Cooling, 4306.17860, 4952.10539, 0.25338, 0.29138, ANCHORAGEMERRILLFIELDANNCLG.4CONDNSDBMWB, 7/21 19:00:00, 20.04800, 7.75780E-003, 57.59988, 1.55000, 2.35974E-002, 0.00000
 Zone Sizing Information, 02_A1, Heating, 0.00000, 0.00000, 0.00000, 0.32470, ANCHORAGEMERRILLFIELDANNHTG99.6CONDNSDB, , -23.90000, 4.35879E-004, 57.59988, 1.55000, 2.35974E-002, 0.00000
 Zone Sizing Information, 02_A2, Cooling, 4582.04386, 5269.35044, 0.26960, 0.31004, ANCHORAGEMERRILLFIELDANNCLG.4CONDNSDBMWB, 7/21 19:00:00, 20.04800, 7.75780E-003, 62.24504, 1.55000, 2.35974E-002, 0.00000
 Zone Sizing Information, 02_A2, Heating, 0.00000, 0.00000, 0.00000, 0.32470, ANCHORAGEMERRILLFIELDANNHTG99.6CONDNSDB, , -23.90000, 4.35879E-004, 62.24504, 1.55000, 2.35974E-002, 0.00000
 Zone Sizing Information, 02_B2, Cooling, 6468.46274, 7438.73215, 0.38058, 0.43767, ANCHORAGEMERRILLFIELDANNCLG.4CONDNSDBMWB, 7/21 19:00:00, 20.04800, 7.75780E-003, 96.77400, 2.47000, 2.35974E-002, 0.00000
 Zone Sizing Information, 02_B2, Heating, 0.00000, 0.00000, 0.00000, 0.32470, ANCHORAGEMERRILLFIELDANNHTG99.6CONDNSDB, , -23.90000, 4.35879E-004, 96.77400, 2.47000, 2.35974E-002, 0.00000
 Zone Sizing Information, 02_C1, Cooling, 6095.82103, 7010.19418, 0.35866, 0.41245, ANCHORAGEMERRILLFIELDANNCLG.4CONDNSDBMWB, 7/21 19:20:00, 19.79867, 7.75780E-003, 113.62042, 3.39000, 2.35974E-002, 0.00000
 Zone Sizing Information, 02_C1, Heating, 0.00000, 0.00000, 0.00000, 0.32470, ANCHORAGEMERRILLFIELDANNHTG99.6CONDNSDB, , -23.90000, 4.35879E-004, 113.62042, 3.39000, 2.35974E-002, 0.00000
 Zone Sizing Information, 03_A1, Cooling, 4561.96456, 5246.25924, 0.26843, 0.30869, ANCHORAGEMERRILLFIELDANNCLG.4CONDNSDBMWB, 7/21 19:00:00, 20.04800, 7.75780E-003, 57.59988, 1.55000, 2.35974E-002, 0.00000
 Zone Sizing Information, 03_A1, Heating, 0.00000, 0.00000, 0.00000, 0.32470, ANCHORAGEMERRILLFIELDANNHTG99.6CONDNSDB, , -23.90000, 4.35879E-004, 57.59988, 1.55000, 2.35974E-002, 0.00000
 Zone Sizing Information, 03_A2, Cooling, 4877.65673, 5609.30523, 0.28699, 0.33004, ANCHORAGEMERRILLFIELDANNCLG.4CONDNSDBMWB, 7/21 18:30:00, 20.55800, 7.75780E-003, 62.24504, 1.55000, 2.35974E-002, 0.00000
 Zone Sizing Information, 03_A2, Heating, 0.00000, 0.00000, 0.00000, 0.32470, ANCHORAGEMERRILLFIELDANNHTG99.6CONDNSDB, , -23.90000, 4.35879E-004, 62.24504, 1.55000, 2.35974E-002, 0.00000
 Zone Sizing Information, 03_B2, Cooling, 6900.64635, 7935.74330, 0.40601, 0.46691, ANCHORAGEMERRILLFIELDANNCLG.4CONDNSDBMWB, 7/21 19:00:00, 20.04800, 7.75780E-003, 96.77400, 2.47000, 2.35974E-002, 0.00000
 Zone Sizing Information, 03_B2, Heating, 0.00000, 0.00000, 0.00000, 0.32470, ANCHORAGEMERRILLFIELDANNHTG99.6CONDNSDB, , -23.90000, 4.35879E-004, 96.77400, 2.47000, 2.35974E-002, 0.00000
 Zone Sizing Information, 03_C1, Cooling, 6657.76596, 7656.43086, 0.39172, 0.45047, ANCHORAGEMERRILLFIELDANNCLG.4CONDNSDBMWB, 7/21 19:00:00, 20.04800, 7.75780E-003, 113.62042, 3.39000, 2.35974E-002, 0.00000
 Zone Sizing Information, 03_C1, Heating, 0.00000, 0.00000, 0.00000, 0.32470, ANCHORAGEMERRILLFIELDANNHTG99.6CONDNSDB, , -23.90000, 4.35879E-004, 113.62042, 3.39000, 2.35974E-002, 0.00000
! <System Sizing Information>, System Name, Load Type, Peak Load Kind, User Design Capacity, Calc Des Air Flow Rate [m3/s], User Des Air Flow Rate [m3/s], Design Day Name, Date/Time of Peak
 System Sizing Information, AIR LOOP HVAC 1, Cooling, Sensible, 1670.15, 0.19136, 0.19136, ANCHORAGEMERRILLFIELDANNCLG.4CONDNSDBMWB, 7/21 05:00:00
 System Sizing Information, AIR LOOP HVAC 1, Heating, Sensible, 1153.64, 2.35974E-002, 2.35974E-002, ANCHORAGEMERRILLFIELDANNHTG99.6CONDNSDB, 1/21 00:10:00
 System Sizing Information, AIR LOOP HVAC 10, Cooling, Sensible, 3083.15, 0.33004, 0.33004, ANCHORAGEMERRILLFIELDANNCLG.4CONDNSDBMWB, 7/21 05:00:00
 System Sizing Information, AIR LOOP HVAC 10, Heating, Sensible, 15874.03, 0.32470, 0.32470, ANCHORAGEMERRILLFIELDANNHTG99.6CONDNSDB, 1/21 00:10:00
 System Sizing Information, AIR LOOP HVAC 11, Cooling, Sensible, 4075.01, 0.46691, 0.46691, ANCHORAGEMERRILLFIELDANNCLG.4CONDNSDBMWB, 7/21 05:00:00
 System Sizing Information, AIR LOOP HVAC 11, Heating, Sensible, 15874.03, 0.32470, 0.32470, ANCHORAGEMERRILLFIELDANNHTG99.6CONDNSDB, 1/21 00:10:00
 System Sizing Information, AIR LOOP HVAC 12, Cooling, Sensible, 3931.58, 0.45047, 0.45047, ANCHORAGEMERRILLFIELDANNCLG.4CONDNSDBMWB, 7/21 05:00:00
 System Sizing Information, AIR LOOP HVAC 12, Heating, Sensible, 15874.03, 0.32470, 0.32470, ANCHORAGEMERRILLFIELDANNHTG99.6CONDNSDB, 1/21 00:10:00
 System Sizing Information, AIR LOOP HVAC 2, Cooling, Sensible, 1759.11, 0.20156, 0.20156, ANCHORAGEMERRILLFIELDANNCLG.4CONDNSDBMWB, 7/21 05:00:00
 System Sizing Information, AIR LOOP HVAC 2, Heating, Sensible, 15874.03, 0.32470, 0.32470, ANCHORAGEMERRILLFIELDANNHTG99.6CONDNSDB, 1/21 00:10:00
 System Sizing Information, AIR LOOP HVAC 3, Cooling, Sensible, 2303.24, 0.26390, 0.26390, ANCHORAGEMERRILLFIELDANNCLG.4CONDNSDBMWB, 7/21 05:00:00
 System Sizing Information, AIR LOOP HVAC 3, Heating, Sensible, 1153.64, 2.35974E-002, 2.35974E-002, ANCHORAGEMERRILLFIELDANNHTG99.6CONDNSDB, 1/21 00:10:00
 System Sizing Information, AIR LOOP HVAC 4, Cooling, Sensible, 2077.47, 0.23803, 0.23803, ANCHORAGEMERRILLFIELDANNCLG.4CONDNSDBMWB, 7/21 05:00:00
 System Sizing Information, AIR LOOP HVAC 4, Heating, Sensible, 1153.64, 2.35974E-002, 2.35974E-002, ANCHORAGEMERRILLFIELDANNHTG99.6CONDNSDB, 1/21 00:10:00
 System Sizing Information, AIR LOOP HVAC 5, Cooling, Sensible, 2543.08, 0.29138, 0.29138, ANCHORAGEMERRILLFIELDANNCLG.4CONDNSDBMWB, 7/21 05:00:00
 System Sizing Information, AIR LOOP HVAC 5, Heating, Sensible, 15874.03, 0.32470, 0.32470, ANCHORAGEMERRILLFIELDANNHTG99.6CONDNSDB, 1/21 00:10:00
 System Sizing Information, AIR LOOP HVAC 6, Cooling, Sensible, 2705.94, 0.31004, 0.31004, ANCHORAGEMERRILLFIELDANNCLG.4CONDNSDBMWB, 7/21 05:00:00
 System Sizing Information, AIR LOOP HVAC 6, Heating, Sensible, 15874.03, 0.32470, 0.32470, ANCHORAGEMERRILLFIELDANNHTG99.6CONDNSDB, 1/21 00:10:00
 System Sizing Information, AIR LOOP HVAC 7, Cooling, Sensible, 3819.80, 0.43767, 0.43767, ANCHORAGEMERRILLFIELDANNCLG.4CONDNSDBMWB, 7/21 05:00:00
 System Sizing Information, AIR LOOP HVAC 7, Heating, Sensible, 15874.03, 0.32470, 0.32470, ANCHORAGEMERRILLFIELDANNHTG99.6CONDNSDB, 1/21 00:10:00
 System Sizing Information, AIR LOOP HVAC 8, Cooling, Sensible, 3475.92, 0.41245, 0.41245, ANCHORAGEMERRILLFIELDANNCLG.4CONDNSDBMWB, 7/21 05:00:00
 System Sizing Information, AIR LOOP HVAC 8, Heating, Sensible, 15874.03, 0.32470, 0.32470, ANCHORAGEMERRILLFIELDANNHTG99.6CONDNSDB, 1/21 00:10:00
 System Sizing Information, AIR LOOP HVAC 9, Cooling, Sensible, 2694.13, 0.30869, 0.30869, ANCHORAGEMERRILLFIELDANNCLG.4CONDNSDBMWB, 7/21 05:00:00
 System Sizing Information, AIR LOOP HVAC 9, Heating, Sensible, 15874.03, 0.32470, 0.32470, ANCHORAGEMERRILLFIELDANNHTG99.6CONDNSDB, 1/21 00:10:00
! <Component Sizing Information>, Component Type, Component Name, Input Field Description, Value
 Component Sizing Information, AirTerminal:SingleDuct:Uncontrolled, DIFFUSER, Design Size Maximum Air Flow Rate [m3/s], 0.19136
 Component Sizing Information, AirTerminal:SingleDuct:Uncontrolled, DIFFUSER 1, Design Size Maximum Air Flow Rate [m3/s], 0.32470
 Component Sizing Information, AirTerminal:SingleDuct:Uncontrolled, DIFFUSER 2, Design Size Maximum Air Flow Rate [m3/s], 0.26390
 Component Sizing Information, AirTerminal:SingleDuct:Uncontrolled, DIFFUSER 3, Design Size Maximum Air Flow Rate [m3/s], 0.23803
 Component Sizing Information, AirTerminal:SingleDuct:Uncontrolled, DIFFUSER 4, Design Size Maximum Air Flow Rate [m3/s], 0.32470
 Component Sizing Information, AirTerminal:SingleDuct:Uncontrolled, DIFFUSER 5, Design Size Maximum Air Flow Rate [m3/s], 0.32470
 Component Sizing Information, AirTerminal:SingleDuct:Uncontrolled, DIFFUSER 11, Design Size Maximum Air Flow Rate [m3/s], 0.43767
 Component Sizing Information, AirTerminal:SingleDuct:Uncontrolled, DIFFUSER 6, Design Size Maximum Air Flow Rate [m3/s], 0.41245
 Component Sizing Information, AirTerminal:SingleDuct:Uncontrolled, DIFFUSER 7, Design Size Maximum Air Flow Rate [m3/s], 0.32470
 Component Sizing Information, AirTerminal:SingleDuct:Uncontrolled, DIFFUSER 8, Design Size Maximum Air Flow Rate [m3/s], 0.33004
 Component Sizing Information, AirTerminal:SingleDuct:Uncontrolled, DIFFUSER 9, Design Size Maximum Air Flow Rate [m3/s], 0.46691
 Component Sizing Information, AirTerminal:SingleDuct:Uncontrolled, DIFFUSER 10, Design Size Maximum Air Flow Rate [m3/s], 0.45047
 Component Sizing Information, AirLoopHVAC, AIR LOOP HVAC 1, Sum of Air Terminal Maximum Heating Flow Rates [m3/s], 0.19136
 Component Sizing Information, AirLoopHVAC, AIR LOOP HVAC 1, Sum of Air Terminal Minimum Heating Flow Rates [m3/s], 0.19136
 Component Sizing Information, AirLoopHVAC, AIR LOOP HVAC 1, Sum of Air Terminal Maximum Flow Rates [m3/s], 0.19136
 Component Sizing Information, AirLoopHVAC, AIR LOOP HVAC 1, Adjusted Heating Design Air Flow Rate [m3/s], 0.19136
 Component Sizing Information, AirLoopHVAC, AIR LOOP HVAC 1, Adjusted Cooling Design Air Flow Rate [m3/s], 0.19136
 Component Sizing Information, AirLoopHVAC, AIR LOOP HVAC 1, Adjusted Main Design Air Flow Rate [m3/s], 0.19136
 Component Sizing Information, AirLoopHVAC, AIR LOOP HVAC 1, User Heating Air Flow Ratio [], 0.30000
 Component Sizing Information, AirLoopHVAC, AIR LOOP HVAC 1, Calculated Heating Air Flow Ratio [], 1.00000
 Component Sizing Information, AirLoopHVAC, AIR LOOP HVAC 10, Sum of Air Terminal Maximum Heating Flow Rates [m3/s], 0.33004
 Component Sizing Information, AirLoopHVAC, AIR LOOP HVAC 10, Sum of Air Terminal Minimum Heating Flow Rates [m3/s], 0.33004
 Component Sizing Information, AirLoopHVAC, AIR LOOP HVAC 10, Sum of Air Terminal Maximum Flow Rates [m3/s], 0.33004
 Component Sizing Information, AirLoopHVAC, AIR LOOP HVAC 10, Adjusted Heating Design Air Flow Rate [m3/s], 0.33004
 Component Sizing Information, AirLoopHVAC, AIR LOOP HVAC 10, Adjusted Cooling Design Air Flow Rate [m3/s], 0.33004
 Component Sizing Information, AirLoopHVAC, AIR LOOP HVAC 10, Adjusted Main Design Air Flow Rate [m3/s], 0.33004
 Component Sizing Information, AirLoopHVAC, AIR LOOP HVAC 10, User Heating Air Flow Ratio [], 0.30000
 Component Sizing Information, AirLoopHVAC, AIR LOOP HVAC 10, Calculated Heating Air Flow Ratio [], 1.00000
 Component Sizing Information, AirLoopHVAC, AIR LOOP HVAC 11, Sum of Air Terminal Maximum Heating Flow Rates [m3/s], 0.46691
 Component Sizing Information, AirLoopHVAC, AIR LOOP HVAC 11, Sum of Air Terminal Minimum Heating Flow Rates [m3/s], 0.46691
 Component Sizing Information, AirLoopHVAC, AIR LOOP HVAC 11, Sum of Air Terminal Maximum Flow Rates [m3/s], 0.46691
 Component Sizing Information, AirLoopHVAC, AIR LOOP HVAC 11, Adjusted Heating Design Air Flow Rate [m3/s], 0.46691
 Component Sizing Information, AirLoopHVAC, AIR LOOP HVAC 11, Adjusted Cooling Design Air Flow Rate [m3/s], 0.46691
 Component Sizing Information, AirLoopHVAC, AIR LOOP HVAC 11, Adjusted Main Design Air Flow Rate [m3/s], 0.46691
 Component Sizing Information, AirLoopHVAC, AIR LOOP HVAC 11, User Heating Air Flow Ratio [], 0.30000
 Component Sizing Information, AirLoopHVAC, AIR LOOP HVAC 11, Calculated Heating Air Flow Ratio [], 1.00000
 Component Sizing Information, AirLoopHVAC, AIR LOOP HVAC 12, Sum of Air Terminal Maximum Heating Flow Rates [m3/s], 0.45047
 Component Sizing Information, AirLoopHVAC, AIR LOOP HVAC 12, Sum of Air Terminal Minimum Heating Flow Rates [m3/s], 0.45047
 Component Sizing Information, AirLoopHVAC, AIR LOOP HVAC 12, Sum of Air Terminal Maximum Flow Rates [m3/s], 0.45047
 Component Sizing Information, AirLoopHVAC, AIR LOOP HVAC 12, Adjusted Heating Design Air Flow Rate [m3/s], 0.45047
 Component Sizing Information, AirLoopHVAC, AIR LOOP HVAC 12, Adjusted Cooling Design Air Flow Rate [m3/s], 0.45047
 Component Sizing Information, AirLoopHVAC, AIR LOOP HVAC 12, Adjusted Main Design Air Flow Rate [m3/s], 0.45047
 Component Sizing Information, AirLoopHVAC, AIR LOOP HVAC 12, User Heating Air Flow Ratio [], 0.30000
 Component Sizing Information, AirLoopHVAC, AIR LOOP HVAC 12, Calculated Heating Air Flow Ratio [], 1.00000
 Component Sizing Information, AirLoopHVAC, AIR LOOP HVAC 2, Sum of Air Terminal Maximum Heating Flow Rates [m3/s], 0.32470
 Component Sizing Information, AirLoopHVAC, AIR LOOP HVAC 2, Sum of Air Terminal Minimum Heating Flow Rates [m3/s], 0.32470
 Component Sizing Information, AirLoopHVAC, AIR LOOP HVAC 2, Sum of Air Terminal Maximum Flow Rates [m3/s], 0.32470
 Component Sizing Information, AirLoopHVAC, AIR LOOP HVAC 2, Adjusted Heating Design Air Flow Rate [m3/s], 0.32470
 Component Sizing Information, AirLoopHVAC, AIR LOOP HVAC 2, Adjusted Cooling Design Air Flow Rate [m3/s], 0.32470
 Component Sizing Information, AirLoopHVAC, AIR LOOP HVAC 2, Adjusted Main Design Air Flow Rate [m3/s], 0.32470
 Component Sizing Information, AirLoopHVAC, AIR LOOP HVAC 2, User Heating Air Flow Ratio [], 0.30000
 Component Sizing Information, AirLoopHVAC, AIR LOOP HVAC 2, Calculated Heating Air Flow Ratio [], 1.00000
 Component Sizing Information, AirLoopHVAC, AIR LOOP HVAC 3, Sum of Air Terminal Maximum Heating Flow Rates [m3/s], 0.26390
 Component Sizing Information, AirLoopHVAC, AIR LOOP HVAC 3, Sum of Air Terminal Minimum Heating Flow Rates [m3/s], 0.26390
 Component Sizing Information, AirLoopHVAC, AIR LOOP HVAC 3, Sum of Air Terminal Maximum Flow Rates [m3/s], 0.26390
 Component Sizing Information, AirLoopHVAC, AIR LOOP HVAC 3, Adjusted Heating Design Air Flow Rate [m3/s], 0.26390
 Component Sizing Information, AirLoopHVAC, AIR LOOP HVAC 3, Adjusted Cooling Design Air Flow Rate [m3/s], 0.26390
 Component Sizing Information, AirLoopHVAC, AIR LOOP HVAC 3, Adjusted Main Design Air Flow Rate [m3/s], 0.26390
 Component Sizing Information, AirLoopHVAC, AIR LOOP HVAC 3, User Heating Air Flow Ratio [], 0.30000
 Component Sizing Information, AirLoopHVAC, AIR LOOP HVAC 3, Calculated Heating Air Flow Ratio [], 1.00000
 Component Sizing Information, AirLoopHVAC, AIR LOOP HVAC 4, Sum of Air Terminal Maximum Heating Flow Rates [m3/s], 0.23803
 Component Sizing Information, AirLoopHVAC, AIR LOOP HVAC 4, Sum of Air Terminal Minimum Heating Flow Rates [m3/s], 0.23803
 Component Sizing Information, AirLoopHVAC, AIR LOOP HVAC 4, Sum of Air Terminal Maximum Flow Rates [m3/s], 0.23803
 Component Sizing Information, AirLoopHVAC, AIR LOOP HVAC 4, Adjusted Heating Design Air Flow Rate [m3/s], 0.23803
 Component Sizing Information, AirLoopHVAC, AIR LOOP HVAC 4, Adjusted Cooling Design Air Flow Rate [m3/s], 0.23803
 Component Sizing Information, AirLoopHVAC, AIR LOOP HVAC 4, Adjusted Main Design Air Flow Rate [m3/s], 0.23803
 Component Sizing Information, AirLoopHVAC, AIR LOOP HVAC 4, User Heating Air Flow Ratio [], 0.30000
 Component Sizing Information, AirLoopHVAC, AIR LOOP HVAC 4, Calculated Heating Air Flow Ratio [], 1.00000
 Component Sizing Information, AirLoopHVAC, AIR LOOP HVAC 5, Sum of Air Terminal Maximum Heating Flow Rates [m3/s], 0.32470
 Component Sizing Information, AirLoopHVAC, AIR LOOP HVAC 5, Sum of Air Terminal Minimum Heating Flow Rates [m3/s], 0.32470
 Component Sizing Information, AirLoopHVAC, AIR LOOP HVAC 5, Sum of Air Terminal Maximum Flow Rates [m3/s], 0.32470
 Component Sizing Information, AirLoopHVAC, AIR LOOP HVAC 5, Adjusted Heating Design Air Flow Rate [m3/s], 0.32470
 Component Sizing Information, AirLoopHVAC, AIR LOOP HVAC 5, Adjusted Cooling Design Air Flow Rate [m3/s], 0.32470
 Component Sizing Information, AirLoopHVAC, AIR LOOP HVAC 5, Adjusted Main Design Air Flow Rate [m3/s], 0.32470
 Component Sizing Information, AirLoopHVAC, AIR LOOP HVAC 5, User Heating Air Flow Ratio [], 0.30000
 Component Sizing Information, AirLoopHVAC, AIR LOOP HVAC 5, Calculated Heating Air Flow Ratio [], 1.00000
 Component Sizing Information, AirLoopHVAC, AIR LOOP HVAC 6, Sum of Air Terminal Maximum Heating Flow Rates [m3/s], 0.32470
 Component Sizing Information, AirLoopHVAC, AIR LOOP HVAC 6, Sum of Air Terminal Minimum Heating Flow Rates [m3/s], 0.32470
 Component Sizing Information, AirLoopHVAC, AIR LOOP HVAC 6, Sum of Air Terminal Maximum Flow Rates [m3/s], 0.32470
 Component Sizing Information, AirLoopHVAC, AIR LOOP HVAC 6, Adjusted Heating Design Air Flow Rate [m3/s], 0.32470
 Component Sizing Information, AirLoopHVAC, AIR LOOP HVAC 6, Adjusted Cooling Design Air Flow Rate [m3/s], 0.32470
 Component Sizing Information, AirLoopHVAC, AIR LOOP HVAC 6, Adjusted Main Design Air Flow Rate [m3/s], 0.32470
 Component Sizing Information, AirLoopHVAC, AIR LOOP HVAC 6, User Heating Air Flow Ratio [], 0.30000
 Component Sizing Information, AirLoopHVAC, AIR LOOP HVAC 6, Calculated Heating Air Flow Ratio [], 1.00000
 Component Sizing Information, AirLoopHVAC, AIR LOOP HVAC 7, Sum of Air Terminal Maximum Heating Flow Rates [m3/s], 0.43767
 Component Sizing Information, AirLoopHVAC, AIR LOOP HVAC 7, Sum of Air Terminal Minimum Heating Flow Rates [m3/s], 0.43767
 Component Sizing Information, AirLoopHVAC, AIR LOOP HVAC 7, Sum of Air Terminal Maximum Flow Rates [m3/s], 0.43767
 Component Sizing Information, AirLoopHVAC, AIR LOOP HVAC 7, Adjusted Heating Design Air Flow Rate [m3/s], 0.43767
 Component Sizing Information, AirLoopHVAC, AIR LOOP HVAC 7, Adjusted Cooling Design Air Flow Rate [m3/s], 0.43767
 Component Sizing Information, AirLoopHVAC, AIR LOOP HVAC 7, Adjusted Main Design Air Flow Rate [m3/s], 0.43767
 Component Sizing Information, AirLoopHVAC, AIR LOOP HVAC 7, User Heating Air Flow Ratio [], 0.30000
 Component Sizing Information, AirLoopHVAC, AIR LOOP HVAC 7, Calculated Heating Air Flow Ratio [], 1.00000
 Component Sizing Information, AirLoopHVAC, AIR LOOP HVAC 8, Sum of Air Terminal Maximum Heating Flow Rates [m3/s], 0.41245
 Component Sizing Information, AirLoopHVAC, AIR LOOP HVAC 8, Sum of Air Terminal Minimum Heating Flow Rates [m3/s], 0.41245
 Component Sizing Information, AirLoopHVAC, AIR LOOP HVAC 8, Sum of Air Terminal Maximum Flow Rates [m3/s], 0.41245
 Component Sizing Information, AirLoopHVAC, AIR LOOP HVAC 8, Adjusted Heating Design Air Flow Rate [m3/s], 0.41245
 Component Sizing Information, AirLoopHVAC, AIR LOOP HVAC 8, Adjusted Cooling Design Air Flow Rate [m3/s], 0.41245
 Component Sizing Information, AirLoopHVAC, AIR LOOP HVAC 8, Adjusted Main Design Air Flow Rate [m3/s], 0.41245
 Component Sizing Information, AirLoopHVAC, AIR LOOP HVAC 8, User Heating Air Flow Ratio [], 0.30000
 Component Sizing Information, AirLoopHVAC, AIR LOOP HVAC 8, Calculated Heating Air Flow Ratio [], 1.00000
 Component Sizing Information, AirLoopHVAC, AIR LOOP HVAC 9, Sum of Air Terminal Maximum Heating Flow Rates [m3/s], 0.32470
 Component Sizing Information, AirLoopHVAC, AIR LOOP HVAC 9, Sum of Air Terminal Minimum Heating Flow Rates [m3/s], 0.32470
 Component Sizing Information, AirLoopHVAC, AIR LOOP HVAC 9, Sum of Air Terminal Maximum Flow Rates [m3/s], 0.32470
 Component Sizing Information, AirLoopHVAC, AIR LOOP HVAC 9, Adjusted Heating Design Air Flow Rate [m3/s], 0.32470
 Component Sizing Information, AirLoopHVAC, AIR LOOP HVAC 9, Adjusted Cooling Design Air Flow Rate [m3/s], 0.32470
 Component Sizing Information, AirLoopHVAC, AIR LOOP HVAC 9, Adjusted Main Design Air Flow Rate [m3/s], 0.32470
 Component Sizing Information, AirLoopHVAC, AIR LOOP HVAC 9, User Heating Air Flow Ratio [], 0.30000
 Component Sizing Information, AirLoopHVAC, AIR LOOP HVAC 9, Calculated Heating Air Flow Ratio [], 1.00000
 Component Sizing Information, AirLoopHVAC, AIR LOOP HVAC 1, Design Supply Air Flow Rate [m3/s], 0.19136
 Component Sizing Information, AirLoopHVAC, AIR LOOP HVAC 10, Design Supply Air Flow Rate [m3/s], 0.33004
 Component Sizing Information, AirLoopHVAC, AIR LOOP HVAC 11, Design Supply Air Flow Rate [m3/s], 0.46691
 Component Sizing Information, AirLoopHVAC, AIR LOOP HVAC 12, Design Supply Air Flow Rate [m3/s], 0.45047
 Component Sizing Information, AirLoopHVAC, AIR LOOP HVAC 2, Design Supply Air Flow Rate [m3/s], 0.32470
 Component Sizing Information, AirLoopHVAC, AIR LOOP HVAC 3, Design Supply Air Flow Rate [m3/s], 0.26390
 Component Sizing Information, AirLoopHVAC, AIR LOOP HVAC 4, Design Supply Air Flow Rate [m3/s], 0.23803
 Component Sizing Information, AirLoopHVAC, AIR LOOP HVAC 5, Design Supply Air Flow Rate [m3/s], 0.32470
 Component Sizing Information, AirLoopHVAC, AIR LOOP HVAC 6, Design Supply Air Flow Rate [m3/s], 0.32470
 Component Sizing Information, AirLoopHVAC, AIR LOOP HVAC 7, Design Supply Air Flow Rate [m3/s], 0.43767
 Component Sizing Information, AirLoopHVAC, AIR LOOP HVAC 8, Design Supply Air Flow Rate [m3/s], 0.41245
 Component Sizing Information, AirLoopHVAC, AIR LOOP HVAC 9, Design Supply Air Flow Rate [m3/s], 0.32470
!<Controller:MechanicalVentilation>,Name,Availability Schedule Name,Demand Controlled Ventilation {Yes/No},System Outdoor Air Method,Zone Maximum Outdoor Air Fraction,Number of Zones,Zone Name,DSOA Name,DSZAD Name
 Controller:MechanicalVentilation,CONTROLLER MECHANICAL VENTILATION 1,ALWAYS ON DISCRETE HVAC_LIBRARY,No,ZoneSum,1.00,1,01_A1,HVAC_OA,01_A1 DESIGN SPEC ZONE AIR DIST
 Controller:MechanicalVentilation,CONTROLLER MECHANICAL VENTILATION 2,ALWAYS ON DISCRETE HVAC_LIBRARY,No,ZoneSum,1.00,1,01_A2,HVAC_OA,01_A2 DESIGN SPEC ZONE AIR DIST
 Controller:MechanicalVentilation,CONTROLLER MECHANICAL VENTILATION 3,ALWAYS ON DISCRETE HVAC_LIBRARY,No,ZoneSum,1.00,1,01_B2,HVAC_OA,01_B2 DESIGN SPEC ZONE AIR DIST
 Controller:MechanicalVentilation,CONTROLLER MECHANICAL VENTILATION 4,ALWAYS ON DISCRETE HVAC_LIBRARY,No,ZoneSum,1.00,1,01_C1,HVAC_OA,01_C1 DESIGN SPEC ZONE AIR DIST
 Controller:MechanicalVentilation,CONTROLLER MECHANICAL VENTILATION 5,ALWAYS ON DISCRETE HVAC_LIBRARY,No,ZoneSum,1.00,1,02_A1,HVAC_OA,02_A1 DESIGN SPEC ZONE AIR DIST
 Controller:MechanicalVentilation,CONTROLLER MECHANICAL VENTILATION 6,ALWAYS ON DISCRETE HVAC_LIBRARY,No,ZoneSum,1.00,1,02_A2,HVAC_OA,02_A2 DESIGN SPEC ZONE AIR DIST
 Controller:MechanicalVentilation,CONTROLLER MECHANICAL VENTILATION 7,ALWAYS ON DISCRETE HVAC_LIBRARY,No,ZoneSum,1.00,1,02_B2,HVAC_OA,02_B2 DESIGN SPEC ZONE AIR DIST
 Controller:MechanicalVentilation,CONTROLLER MECHANICAL VENTILATION 8,ALWAYS ON DISCRETE HVAC_LIBRARY,No,ZoneSum,1.00,1,02_C1,HVAC_OA,02_C1 DESIGN SPEC ZONE AIR DIST
 Controller:MechanicalVentilation,CONTROLLER MECHANICAL VENTILATION 9,ALWAYS ON DISCRETE HVAC_LIBRARY,No,ZoneSum,1.00,1,03_A1,HVAC_OA,03_A1 DESIGN SPEC ZONE AIR DIST
 Controller:MechanicalVentilation,CONTROLLER MECHANICAL VENTILATION 10,ALWAYS ON DISCRETE HVAC_LIBRARY,No,ZoneSum,1.00,1,03_A2,HVAC_OA,03_A2 DESIGN SPEC ZONE AIR DIST
 Controller:MechanicalVentilation,CONTROLLER MECHANICAL VENTILATION 11,ALWAYS ON DISCRETE HVAC_LIBRARY,No,ZoneSum,1.00,1,03_B2,HVAC_OA,03_B2 DESIGN SPEC ZONE AIR DIST
 Controller:MechanicalVentilation,CONTROLLER MECHANICAL VENTILATION 12,ALWAYS ON DISCRETE HVAC_LIBRARY,No,ZoneSum,1.00,1,03_C1,HVAC_OA,03_C1 DESIGN SPEC ZONE AIR DIST
 Component Sizing Information, Controller:OutdoorAir, OUTDOOR AIR CONTROLLER, Maximum Outdoor Air Flow Rate [m3/s], 0.19136
 Component Sizing Information, Controller:OutdoorAir, OUTDOOR AIR CONTROLLER, Minimum Outdoor Air Flow Rate [m3/s], 2.35974E-002
 Component Sizing Information, AirLoopHVAC:UnitarySystem, UNITARY - DX HEAT PUMP - CYCLING - ELEC REHEAT, Design Size Supply Air Flow Rate [m3/s], 0.19136
 Component Sizing Information, AirLoopHVAC:UnitarySystem, UNITARY - DX HEAT PUMP - CYCLING - ELEC REHEAT, Design Size Heating Supply Air Flow Rate [m3/s], 0.19136
 Component Sizing Information, AirLoopHVAC:UnitarySystem, UNITARY - DX HEAT PUMP - CYCLING - ELEC REHEAT, Design Size Cooling Supply Air Flow Rate [m3/s], 0.19136
 Component Sizing Information, AirLoopHVAC:UnitarySystem, UNITARY - DX HEAT PUMP - CYCLING - ELEC REHEAT, Design Size No Load Supply Air Flow Rate [m3/s], 0.19136
 Component Sizing Information, AirLoopHVAC:UnitarySystem, UNITARY - DX HEAT PUMP - CYCLING - ELEC REHEAT, Design Size Nominal Cooling Capacity [W], 4752.00783
 Component Sizing Information, AirLoopHVAC:UnitarySystem, UNITARY - DX HEAT PUMP - CYCLING - ELEC REHEAT, Design Size Nominal Heating Capacity [W], 4752.00783
 Component Sizing Information, AirLoopHVAC:UnitarySystem, UNITARY - DX HEAT PUMP - CYCLING - ELEC REHEAT, Design Size Maximum Supply Air Temperature [C], 16.70000
 Component Sizing Information, AirLoopHVAC:UnitarySystem, UNITARY - DX HEAT PUMP - CYCLING - ELEC REHEAT, User-Specified Maximum Supply Air Temperature [C], 80.00000
 Component Sizing Information, AirLoopHVAC:UnitarySystem, UNITARY - DX HEAT PUMP - CYCLING - ELEC REHEAT, Design Size Supplemental Heating Coil Nominal Capacity [W], 4752.00783
 Component Sizing Information, AirLoopHVAC:UnitarySystem, UNITARY - DX HEAT PUMP - CYCLING - ELEC REHEAT, User-Specified Supplemental Heating Coil Nominal Capacity [W], 4752.00783
 Component Sizing Information, AirLoopHVAC:UnitarySystem, UNITARY - DX HEAT PUMP - CYCLING - ELEC REHEAT, Fraction of Supply Air Flow That Goes Through the Controlling Zone, 1.00000
 Component Sizing Information, Fan:OnOff, FAN ON OFF 5, Design Size Maximum Flow Rate [m3/s], 0.19136
 Component Sizing Information, Coil:Cooling:DX:SingleSpeed, 1 SPD DX CLG COIL 4, Design Size Rated Air Flow Rate [m3/s], 0.19136
 Component Sizing Information, Coil:Cooling:DX:SingleSpeed, 1 SPD DX CLG COIL 4, Design Size Gross Rated Total Cooling Capacity [W], 4752.00783
 Component Sizing Information, Coil:Cooling:DX:SingleSpeed, 1 SPD DX CLG COIL 4, Design Size Gross Rated Sensible Heat Ratio, 0.69808
! <DX Cooling Coil Standard Rating Information>, Component Type, Component Name, Standard Rating (Net) Cooling Capacity {W}, Standard Rated Net COP {W/W}, EER {Btu/W-h}, SEER {Btu/W-h}, IEER {Btu/W-h}
 DX Cooling Coil Standard Rating Information, Coil:Cooling:DX:SingleSpeed, 1 SPD DX CLG COIL 4, 4601.0, 3.07, 10.47, 10.41, 10.78
 Component Sizing Information, Coil:Heating:DX:SingleSpeed, 1 SPD DX HTG COIL 3, Design Size Rated Air Flow Rate [m3/s], 0.19136
 Component Sizing Information, Coil:Heating:DX:SingleSpeed, 1 SPD DX HTG COIL 3, Design Size Gross Rated Heating Capacity [W], 4752.00783
 Component Sizing Information, Coil:Heating:DX:SingleSpeed, 1 SPD DX HTG COIL 3, Design Size Resistive Defrost Heater Capacity [W], 4752.00783
 Component Sizing Information, Coil:Heating:DX:SingleSpeed, 1 SPD DX HTG COIL 3, User-Specified Resistive Defrost Heater Capacity [W], 2000.00000
! <DX Heating Coil Standard Rating Information>, Component Type, Component Name, High Temperature Heating (net) Rating Capacity {W}, Low Temperature Heating (net) Rating Capacity {W}, HSPF {Btu/W-h}, Region Number
 DX Heating Coil Standard Rating Information, Coil:Heating:DX:SingleSpeed, 1 SPD DX HTG COIL 3, 4905.8, 2699.4, 6.54, 4
 Component Sizing Information, Coil:Heating:Electric, ELEC HTG COIL 5, Design Size Nominal Capacity [W], 4752.00783
 Component Sizing Information, Controller:OutdoorAir, OUTDOOR AIR CONTROLLER 9, Maximum Outdoor Air Flow Rate [m3/s], 0.33004
 Component Sizing Information, Controller:OutdoorAir, OUTDOOR AIR CONTROLLER 9, Minimum Outdoor Air Flow Rate [m3/s], 2.35974E-002
 Component Sizing Information, AirLoopHVAC:UnitarySystem, UNITARY - DX HEAT PUMP - CYCLING - ELEC REHEAT 9, Design Size Supply Air Flow Rate [m3/s], 0.33004
 Component Sizing Information, AirLoopHVAC:UnitarySystem, UNITARY - DX HEAT PUMP - CYCLING - ELEC REHEAT 9, Design Size Heating Supply Air Flow Rate [m3/s], 0.33004
 Component Sizing Information, AirLoopHVAC:UnitarySystem, UNITARY - DX HEAT PUMP - CYCLING - ELEC REHEAT 9, Design Size Cooling Supply Air Flow Rate [m3/s], 0.33004
 Component Sizing Information, AirLoopHVAC:UnitarySystem, UNITARY - DX HEAT PUMP - CYCLING - ELEC REHEAT 9, Design Size No Load Supply Air Flow Rate [m3/s], 0.33004
 Component Sizing Information, AirLoopHVAC:UnitarySystem, UNITARY - DX HEAT PUMP - CYCLING - ELEC REHEAT 9, Design Size Nominal Cooling Capacity [W], 8195.66201
 Component Sizing Information, AirLoopHVAC:UnitarySystem, UNITARY - DX HEAT PUMP - CYCLING - ELEC REHEAT 9, Design Size Nominal Heating Capacity [W], 8195.66201
 Component Sizing Information, AirLoopHVAC:UnitarySystem, UNITARY - DX HEAT PUMP - CYCLING - ELEC REHEAT 9, Design Size Maximum Supply Air Temperature [C], 16.70000
 Component Sizing Information, AirLoopHVAC:UnitarySystem, UNITARY - DX HEAT PUMP - CYCLING - ELEC REHEAT 9, User-Specified Maximum Supply Air Temperature [C], 80.00000
 Component Sizing Information, AirLoopHVAC:UnitarySystem, UNITARY - DX HEAT PUMP - CYCLING - ELEC REHEAT 9, Design Size Supplemental Heating Coil Nominal Capacity [W], 8195.66201
 Component Sizing Information, AirLoopHVAC:UnitarySystem, UNITARY - DX HEAT PUMP - CYCLING - ELEC REHEAT 9, User-Specified Supplemental Heating Coil Nominal Capacity [W], 8195.66201
 Component Sizing Information, AirLoopHVAC:UnitarySystem, UNITARY - DX HEAT PUMP - CYCLING - ELEC REHEAT 9, Fraction of Supply Air Flow That Goes Through the Controlling Zone, 1.00000
 Component Sizing Information, Fan:OnOff, FAN ON OFF 14, Design Size Maximum Flow Rate [m3/s], 0.33004
 Component Sizing Information, Coil:Cooling:DX:SingleSpeed, 1 SPD DX CLG COIL 13, Design Size Rated Air Flow Rate [m3/s], 0.33004
 Component Sizing Information, Coil:Cooling:DX:SingleSpeed, 1 SPD DX CLG COIL 13, Design Size Gross Rated Total Cooling Capacity [W], 8195.66201
 Component Sizing Information, Coil:Cooling:DX:SingleSpeed, 1 SPD DX CLG COIL 13, Design Size Gross Rated Sensible Heat Ratio, 0.69808
 DX Cooling Coil Standard Rating Information, Coil:Cooling:DX:SingleSpeed, 1 SPD DX CLG COIL 13, 7935.3, 3.07, 10.47, 10.41, 10.78
 Component Sizing Information, Coil:Heating:DX:SingleSpeed, 1 SPD DX HTG COIL 12, Design Size Rated Air Flow Rate [m3/s], 0.33004
 Component Sizing Information, Coil:Heating:DX:SingleSpeed, 1 SPD DX HTG COIL 12, Design Size Gross Rated Heating Capacity [W], 8195.66201
 Component Sizing Information, Coil:Heating:DX:SingleSpeed, 1 SPD DX HTG COIL 12, Design Size Resistive Defrost Heater Capacity [W], 8195.66201
 Component Sizing Information, Coil:Heating:DX:SingleSpeed, 1 SPD DX HTG COIL 12, User-Specified Resistive Defrost Heater Capacity [W], 2000.00000
 DX Heating Coil Standard Rating Information, Coil:Heating:DX:SingleSpeed, 1 SPD DX HTG COIL 12, 8460.8, 4655.6, 6.54, 4
 Component Sizing Information, Coil:Heating:Electric, ELEC HTG COIL 14, Design Size Nominal Capacity [W], 8195.66201
 Component Sizing Information, Controller:OutdoorAir, OUTDOOR AIR CONTROLLER 10, Maximum Outdoor Air Flow Rate [m3/s], 0.46691
 Component Sizing Information, Controller:OutdoorAir, OUTDOOR AIR CONTROLLER 10, Minimum Outdoor Air Flow Rate [m3/s], 2.35974E-002
 Component Sizing Information, AirLoopHVAC:UnitarySystem, UNITARY - DX HEAT PUMP - CYCLING - ELEC REHEAT 10, Design Size Supply Air Flow Rate [m3/s], 0.46691
 Component Sizing Information, AirLoopHVAC:UnitarySystem, UNITARY - DX HEAT PUMP - CYCLING - ELEC REHEAT 10, Design Size Heating Supply Air Flow Rate [m3/s], 0.46691
 Component Sizing Information, AirLoopHVAC:UnitarySystem, UNITARY - DX HEAT PUMP - CYCLING - ELEC REHEAT 10, Design Size Cooling Supply Air Flow Rate [m3/s], 0.46691
 Component Sizing Information, AirLoopHVAC:UnitarySystem, UNITARY - DX HEAT PUMP - CYCLING - ELEC REHEAT 10, Design Size No Load Supply Air Flow Rate [m3/s], 0.46691
 Component Sizing Information, AirLoopHVAC:UnitarySystem, UNITARY - DX HEAT PUMP - CYCLING - ELEC REHEAT 10, Design Size Nominal Cooling Capacity [W], 11594.43195
 Component Sizing Information, AirLoopHVAC:UnitarySystem, UNITARY - DX HEAT PUMP - CYCLING - ELEC REHEAT 10, Design Size Nominal Heating Capacity [W], 11594.43195
 Component Sizing Information, AirLoopHVAC:UnitarySystem, UNITARY - DX HEAT PUMP - CYCLING - ELEC REHEAT 10, Design Size Maximum Supply Air Temperature [C], 16.70000
 Component Sizing Information, AirLoopHVAC:UnitarySystem, UNITARY - DX HEAT PUMP - CYCLING - ELEC REHEAT 10, User-Specified Maximum Supply Air Temperature [C], 80.00000
 Component Sizing Information, AirLoopHVAC:UnitarySystem, UNITARY - DX HEAT PUMP - CYCLING - ELEC REHEAT 10, Design Size Supplemental Heating Coil Nominal Capacity [W], 11594.43195
 Component Sizing Information, AirLoopHVAC:UnitarySystem, UNITARY - DX HEAT PUMP - CYCLING - ELEC REHEAT 10, User-Specified Supplemental Heating Coil Nominal Capacity [W], 11594.43195
 Component Sizing Information, AirLoopHVAC:UnitarySystem, UNITARY - DX HEAT PUMP - CYCLING - ELEC REHEAT 10, Fraction of Supply Air Flow That Goes Through the Controlling Zone, 1.00000
 Component Sizing Information, Fan:OnOff, FAN ON OFF 15, Design Size Maximum Flow Rate [m3/s], 0.46691
 Component Sizing Information, Coil:Cooling:DX:SingleSpeed, 1 SPD DX CLG COIL 14, Design Size Rated Air Flow Rate [m3/s], 0.46691
 Component Sizing Information, Coil:Cooling:DX:SingleSpeed, 1 SPD DX CLG COIL 14, Design Size Gross Rated Total Cooling Capacity [W], 11594.43195
 Component Sizing Information, Coil:Cooling:DX:SingleSpeed, 1 SPD DX CLG COIL 14, Design Size Gross Rated Sensible Heat Ratio, 0.69808
 DX Cooling Coil Standard Rating Information, Coil:Cooling:DX:SingleSpeed, 1 SPD DX CLG COIL 14, 11226.1, 3.07, 10.47, 10.41, 10.78
 Component Sizing Information, Coil:Heating:DX:SingleSpeed, 1 SPD DX HTG COIL 13, Design Size Rated Air Flow Rate [m3/s], 0.46691
 Component Sizing Information, Coil:Heating:DX:SingleSpeed, 1 SPD DX HTG COIL 13, Design Size Gross Rated Heating Capacity [W], 11594.43195
 Component Sizing Information, Coil:Heating:DX:SingleSpeed, 1 SPD DX HTG COIL 13, Design Size Resistive Defrost Heater Capacity [W], 11594.43195
 Component Sizing Information, Coil:Heating:DX:SingleSpeed, 1 SPD DX HTG COIL 13, User-Specified Resistive Defrost Heater Capacity [W], 2000.00000
 DX Heating Coil Standard Rating Information, Coil:Heating:DX:SingleSpeed, 1 SPD DX HTG COIL 13, 11969.5, 6586.3, 6.54, 4
 Component Sizing Information, Coil:Heating:Electric, ELEC HTG COIL 15, Design Size Nominal Capacity [W], 11594.43195
 Component Sizing Information, Controller:OutdoorAir, OUTDOOR AIR CONTROLLER 11, Maximum Outdoor Air Flow Rate [m3/s], 0.45047
 Component Sizing Information, Controller:OutdoorAir, OUTDOOR AIR CONTROLLER 11, Minimum Outdoor Air Flow Rate [m3/s], 2.35974E-002
 Component Sizing Information, AirLoopHVAC:UnitarySystem, UNITARY - DX HEAT PUMP - CYCLING - ELEC REHEAT 11, Design Size Supply Air Flow Rate [m3/s], 0.45047
 Component Sizing Information, AirLoopHVAC:UnitarySystem, UNITARY - DX HEAT PUMP - CYCLING - ELEC REHEAT 11, Design Size Heating Supply Air Flow Rate [m3/s], 0.45047
 Component Sizing Information, AirLoopHVAC:UnitarySystem, UNITARY - DX HEAT PUMP - CYCLING - ELEC REHEAT 11, Design Size Cooling Supply Air Flow Rate [m3/s], 0.45047
 Component Sizing Information, AirLoopHVAC:UnitarySystem, UNITARY - DX HEAT PUMP - CYCLING - ELEC REHEAT 11, Design Size No Load Supply Air Flow Rate [m3/s], 0.45047
 Component Sizing Information, AirLoopHVAC:UnitarySystem, UNITARY - DX HEAT PUMP - CYCLING - ELEC REHEAT 11, Design Size Nominal Cooling Capacity [W], 11186.33930
 Component Sizing Information, AirLoopHVAC:UnitarySystem, UNITARY - DX HEAT PUMP - CYCLING - ELEC REHEAT 11, Design Size Nominal Heating Capacity [W], 11186.33930
 Component Sizing Information, AirLoopHVAC:UnitarySystem, UNITARY - DX HEAT PUMP - CYCLING - ELEC REHEAT 11, Design Size Maximum Supply Air Temperature [C], 16.70000
 Component Sizing Information, AirLoopHVAC:UnitarySystem, UNITARY - DX HEAT PUMP - CYCLING - ELEC REHEAT 11, User-Specified Maximum Supply Air Temperature [C], 80.00000
 Component Sizing Information, AirLoopHVAC:UnitarySystem, UNITARY - DX HEAT PUMP - CYCLING - ELEC REHEAT 11, Design Size Supplemental Heating Coil Nominal Capacity [W], 11186.33930
 Component Sizing Information, AirLoopHVAC:UnitarySystem, UNITARY - DX HEAT PUMP - CYCLING - ELEC REHEAT 11, User-Specified Supplemental Heating Coil Nominal Capacity [W], 11186.33930
 Component Sizing Information, AirLoopHVAC:UnitarySystem, UNITARY - DX HEAT PUMP - CYCLING - ELEC REHEAT 11, Fraction of Supply Air Flow That Goes Through the Controlling Zone, 1.00000
 Component Sizing Information, Fan:OnOff, FAN ON OFF 16, Design Size Maximum Flow Rate [m3/s], 0.45047
 Component Sizing Information, Coil:Cooling:DX:SingleSpeed, 1 SPD DX CLG COIL 15, Design Size Rated Air Flow Rate [m3/s], 0.45047
 Component Sizing Information, Coil:Cooling:DX:SingleSpeed, 1 SPD DX CLG COIL 15, Design Size Gross Rated Total Cooling Capacity [W], 11186.33930
 Component Sizing Information, Coil:Cooling:DX:SingleSpeed, 1 SPD DX CLG COIL 15, Design Size Gross Rated Sensible Heat Ratio, 0.69808
 DX Cooling Coil Standard Rating Information, Coil:Cooling:DX:SingleSpeed, 1 SPD DX CLG COIL 15, 10831.0, 3.07, 10.47, 10.41, 10.78
 Component Sizing Information, Coil:Heating:DX:SingleSpeed, 1 SPD DX HTG COIL 14, Design Size Rated Air Flow Rate [m3/s], 0.45047
 Component Sizing Information, Coil:Heating:DX:SingleSpeed, 1 SPD DX HTG COIL 14, Design Size Gross Rated Heating Capacity [W], 11186.33930
 Component Sizing Information, Coil:Heating:DX:SingleSpeed, 1 SPD DX HTG COIL 14, Design Size Resistive Defrost Heater Capacity [W], 11186.33930
 Component Sizing Information, Coil:Heating:DX:SingleSpeed, 1 SPD DX HTG COIL 14, User-Specified Resistive Defrost Heater Capacity [W], 2000.00000
 DX Heating Coil Standard Rating Information, Coil:Heating:DX:SingleSpeed, 1 SPD DX HTG COIL 14, 11548.3, 6354.5, 6.54, 4
 Component Sizing Information, Coil:Heating:Electric, ELEC HTG COIL 16, Design Size Nominal Capacity [W], 11186.33930
 Component Sizing Information, Controller:OutdoorAir, OUTDOOR AIR CONTROLLER 1, Maximum Outdoor Air Flow Rate [m3/s], 0.32470
 Component Sizing Information, Controller:OutdoorAir, OUTDOOR AIR CONTROLLER 1, Minimum Outdoor Air Flow Rate [m3/s], 2.35974E-002
 Component Sizing Information, AirLoopHVAC:UnitarySystem, UNITARY - DX HEAT PUMP - CYCLING - ELEC REHEAT 1, Design Size Supply Air Flow Rate [m3/s], 0.32470
 Component Sizing Information, AirLoopHVAC:UnitarySystem, UNITARY - DX HEAT PUMP - CYCLING - ELEC REHEAT 1, Design Size Heating Supply Air Flow Rate [m3/s], 0.32470
 Component Sizing Information, AirLoopHVAC:UnitarySystem, UNITARY - DX HEAT PUMP - CYCLING - ELEC REHEAT 1, Design Size Cooling Supply Air Flow Rate [m3/s], 0.32470
[...]
 Warmup Convergence Information,01_B2,SizingPeriod: ANCHORAGEMERRILLFIELDANNCLG.4CONDNSDBMWB,6.6110306182E-003,1.6710031745E-002,Pass,Pass,6.8637633918E-002,0.2169036071,Pass,Pass
 Warmup Convergence Information,01_C1,SizingPeriod: ANCHORAGEMERRILLFIELDANNCLG.4CONDNSDBMWB,9.2049854650E-003,2.0584453245E-002,Pass,Pass,7.3174219153E-002,0.2921550072,Pass,Pass
 Warmup Convergence Information,02_A1,SizingPeriod: ANCHORAGEMERRILLFIELDANNCLG.4CONDNSDBMWB,2.8794937708E-005,6.2746637942E-005,Pass,Pass,1.4566974105E-002,3.0591306327E-002,Pass,Pass
 Warmup Convergence Information,02_A2,SizingPeriod: ANCHORAGEMERRILLFIELDANNCLG.4CONDNSDBMWB,4.3588301806E-005,8.1201733221E-005,Pass,Pass,1.5667343331E-002,2.8458460477E-002,Pass,Pass
 Warmup Convergence Information,02_B2,SizingPeriod: ANCHORAGEMERRILLFIELDANNCLG.4CONDNSDBMWB,2.7143521500E-005,4.4177905130E-005,Pass,Pass,1.9252326111E-002,2.8969703345E-002,Pass,Pass
 Warmup Convergence Information,02_C1,SizingPeriod: ANCHORAGEMERRILLFIELDANNCLG.4CONDNSDBMWB,2.8228227170E-005,5.0523075761E-005,Pass,Pass,1.7929241153E-002,2.8819850380E-002,Pass,Pass
 Warmup Convergence Information,03_A1,SizingPeriod: ANCHORAGEMERRILLFIELDANNCLG.4CONDNSDBMWB,2.8859113525E-005,6.5301971211E-005,Pass,Pass,1.5974314629E-002,3.4070239646E-002,Pass,Pass
 Warmup Convergence Information,03_A2,SizingPeriod: ANCHORAGEMERRILLFIELDANNCLG.4CONDNSDBMWB,3.0546444158E-005,6.3324257752E-005,Pass,Pass,1.7527090791E-002,3.2571956491E-002,Pass,Pass
 Warmup Convergence Information,03_B2,SizingPeriod: ANCHORAGEMERRILLFIELDANNCLG.4CONDNSDBMWB,2.5152225223E-005,4.1789526839E-005,Pass,Pass,2.0900109657E-002,3.2468116794E-002,Pass,Pass
 Warmup Convergence Information,03_C1,SizingPeriod: ANCHORAGEMERRILLFIELDANNCLG.4CONDNSDBMWB,2.5995391461E-005,4.7776991268E-005,Pass,Pass,1.9611045100E-002,3.2121128089E-002,Pass,Pass
Environment,ANCHORAGEMERRILLFIELDANNCLG.4CONDNSDPMDB,SizingPeriod:DesignDay,07/21,07/21,SummerDesignDay,1,N/A,N/A,N/A,N/A,N/A,N/A
Environment:Daylight Saving,No,SizingPeriod:DesignDay
Environment:Design Day Data,17.20,6.80,DefaultMultipliers,100821,270,2.8,0.00,No,No
Environment:Design Day Misc,202,1084.4,0.2082,0.1365,1.0,-6.23,20.6,ASHRAETau
Environment:WarmupDays,  6
 Warmup Convergence Information,01_A1,SizingPeriod: ANCHORAGEMERRILLFIELDANNCLG.4CONDNSDPMDB,5.9632435411E-005,1.4425353285E-004,Pass,Pass,3.5035225360E-002,7.5511934865E-002,Pass,Pass
 Warmup Convergence Information,01_A2,SizingPeriod: ANCHORAGEMERRILLFIELDANNCLG.4CONDNSDPMDB,4.5258087494E-005,9.3410997250E-005,Pass,Pass,2.6372041499E-002,5.6396324119E-002,Pass,Pass
 Warmup Convergence Information,01_B2,SizingPeriod: ANCHORAGEMERRILLFIELDANNCLG.4CONDNSDPMDB,1.5654310103E-002,3.0740673362E-002,Pass,Pass,5.1640742767E-002,0.1797167120,Pass,Pass
 Warmup Convergence Information,01_C1,SizingPeriod: ANCHORAGEMERRILLFIELDANNCLG.4CONDNSDPMDB,1.6883848375E-002,3.0550966916E-002,Pass,Pass,4.9344287547E-002,0.1439246340,Pass,Pass
 Warmup Convergence Information,02_A1,SizingPeriod: ANCHORAGEMERRILLFIELDANNCLG.4CONDNSDPMDB,3.0622687966E-005,7.1444178500E-005,Pass,Pass,1.5271744159E-002,3.1967733733E-002,Pass,Pass
 Warmup Convergence Information,02_A2,SizingPeriod: ANCHORAGEMERRILLFIELDANNCLG.4CONDNSDPMDB,4.5825689151E-005,9.1475823284E-005,Pass,Pass,1.6484967738E-002,2.9963878507E-002,Pass,Pass
 Warmup Convergence Information,02_B2,SizingPeriod: ANCHORAGEMERRILLFIELDANNCLG.4CONDNSDPMDB,2.7660326045E-005,4.8679261027E-005,Pass,Pass,2.0788589453E-002,3.1312477178E-002,Pass,Pass
 Warmup Convergence Information,02_C1,SizingPeriod: ANCHORAGEMERRILLFIELDANNCLG.4CONDNSDPMDB,2.8767253086E-005,5.5200011422E-005,Pass,Pass,1.9428477143E-002,3.0962816330E-002,Pass,Pass
 Warmup Convergence Information,03_A1,SizingPeriod: ANCHORAGEMERRILLFIELDANNCLG.4CONDNSDPMDB,3.1416333475E-005,7.4191465909E-005,Pass,Pass,1.6950541950E-002,3.6053197955E-002,Pass,Pass
 Warmup Convergence Information,03_A2,SizingPeriod: ANCHORAGEMERRILLFIELDANNCLG.4CONDNSDPMDB,3.2461609523E-005,7.1327033244E-005,Pass,Pass,1.8826148951E-002,3.5055200070E-002,Pass,Pass
 Warmup Convergence Information,03_B2,SizingPeriod: ANCHORAGEMERRILLFIELDANNCLG.4CONDNSDPMDB,2.5684981120E-005,4.5811904017E-005,Pass,Pass,2.2849251989E-002,3.5805126799E-002,Pass,Pass
 Warmup Convergence Information,03_C1,SizingPeriod: ANCHORAGEMERRILLFIELDANNCLG.4CONDNSDPMDB,2.6596820497E-005,5.2040707143E-005,Pass,Pass,2.1528414521E-002,3.5291393287E-002,Pass,Pass
Environment,ANCHORAGEMERRILLFIELDANNCLG.4CONDNSENTHMDB,SizingPeriod:DesignDay,07/21,07/21,SummerDesignDay,1,N/A,N/A,N/A,N/A,N/A,N/A
Environment:Daylight Saving,No,SizingPeriod:DesignDay
Environment:Design Day Data,21.30,6.80,DefaultMultipliers,100821,270,2.8,0.00,No,No
Environment:Design Day Misc,202,1084.4,0.2082,0.1365,1.0,-6.23,20.6,ASHRAETau
Environment:WarmupDays,  6
 Warmup Convergence Information,01_A1,SizingPeriod: ANCHORAGEMERRILLFIELDANNCLG.4CONDNSENTHMDB,7.5979237520E-005,1.8067580849E-004,Pass,Pass,3.1627320869E-002,6.9051584791E-002,Pass,Pass
 Warmup Convergence Information,01_A2,SizingPeriod: ANCHORAGEMERRILLFIELDANNCLG.4CONDNSENTHMDB,5.5744562994E-005,1.1881958856E-004,Pass,Pass,2.4983231985E-002,5.3757485618E-002,Pass,Pass
 Warmup Convergence Information,01_B2,SizingPeriod: ANCHORAGEMERRILLFIELDANNCLG.4CONDNSENTHMDB,8.8086163918E-003,2.1869563604E-002,Pass,Pass,6.1048039917E-002,0.1842254980,Pass,Pass
 Warmup Convergence Information,01_C1,SizingPeriod: ANCHORAGEMERRILLFIELDANNCLG.4CONDNSENTHMDB,1.1076887555E-002,2.3646181511E-002,Pass,Pass,7.1317060191E-002,0.3471108655,Pass,Pass
 Warmup Convergence Information,02_A1,SizingPeriod: ANCHORAGEMERRILLFIELDANNCLG.4CONDNSENTHMDB,3.7889939056E-005,8.9738029647E-005,Pass,Pass,1.4726456765E-002,3.0904601439E-002,Pass,Pass
 Warmup Convergence Information,02_A2,SizingPeriod: ANCHORAGEMERRILLFIELDANNCLG.4CONDNSENTHMDB,5.3143203291E-005,1.1565376537E-004,Pass,Pass,1.5856743142E-002,2.8806415768E-002,Pass,Pass
 Warmup Convergence Information,02_B2,SizingPeriod: ANCHORAGEMERRILLFIELDANNCLG.4CONDNSENTHMDB,3.0808175383E-005,5.9996635380E-005,Pass,Pass,1.9592282012E-002,2.9478799107E-002,Pass,Pass
 Warmup Convergence Information,02_C1,SizingPeriod: ANCHORAGEMERRILLFIELDANNCLG.4CONDNSENTHMDB,3.2570732722E-005,6.6479507592E-005,Pass,Pass,1.8261470595E-002,2.9284336449E-002,Pass,Pass
 Warmup Convergence Information,03_A1,SizingPeriod: ANCHORAGEMERRILLFIELDANNCLG.4CONDNSENTHMDB,3.9546126569E-005,9.3295898584E-005,Pass,Pass,1.6188574298E-002,3.4494819162E-002,Pass,Pass
 Warmup Convergence Information,03_A2,SizingPeriod: ANCHORAGEMERRILLFIELDANNCLG.4CONDNSENTHMDB,3.9084763217E-005,8.9999780456E-005,Pass,Pass,1.7818437639E-002,3.3103815076E-002,Pass,Pass
 Warmup Convergence Information,03_B2,SizingPeriod: ANCHORAGEMERRILLFIELDANNCLG.4CONDNSENTHMDB,2.8983729466E-005,5.6412346716E-005,Pass,Pass,2.1316700776E-002,3.3152624063E-002,Pass,Pass
 Warmup Convergence Information,03_C1,SizingPeriod: ANCHORAGEMERRILLFIELDANNCLG.4CONDNSENTHMDB,3.0404640367E-005,6.2778918971E-005,Pass,Pass,2.0018265752E-002,3.2761092090E-002,Pass,Pass
Environment,ANCHORAGEMERRILLFIELDANNCLG.4CONDNSWBMDB,SizingPeriod:DesignDay,07/21,07/21,SummerDesignDay,1,N/A,N/A,N/A,N/A,N/A,N/A
Environment:Daylight Saving,No,SizingPeriod:DesignDay
Environment:Design Day Data,21.30,6.80,DefaultMultipliers,100821,270,2.8,0.00,No,No
Environment:Design Day Misc,202,1084.4,0.2082,0.1365,1.0,-6.23,20.6,ASHRAETau
Environment:WarmupDays,  6
 Warmup Convergence Information,01_A1,SizingPeriod: ANCHORAGEMERRILLFIELDANNCLG.4CONDNSWBMDB,5.7821587018E-005,1.3896470153E-004,Pass,Pass,3.1658530991E-002,6.9124671531E-002,Pass,Pass
 Warmup Convergence Information,01_A2,SizingPeriod: ANCHORAGEMERRILLFIELDANNCLG.4CONDNSWBMDB,4.5105038108E-005,9.1570433781E-005,Pass,Pass,2.4986516809E-002,5.3791437354E-002,Pass,Pass
 Warmup Convergence Information,01_B2,SizingPeriod: ANCHORAGEMERRILLFIELDANNCLG.4CONDNSWBMDB,8.8258299418E-003,2.1940593760E-002,Pass,Pass,6.1228441630E-002,0.1855069153,Pass,Pass
 Warmup Convergence Information,01_C1,SizingPeriod: ANCHORAGEMERRILLFIELDANNCLG.4CONDNSWBMDB,1.1092671883E-002,2.3671235281E-002,Pass,Pass,7.1516340707E-002,0.3492650558,Pass,Pass
 Warmup Convergence Information,02_A1,SizingPeriod: ANCHORAGEMERRILLFIELDANNCLG.4CONDNSWBMDB,3.0620915591E-005,7.0533608212E-005,Pass,Pass,1.4729649835E-002,3.0916096612E-002,Pass,Pass
 Warmup Convergence Information,02_A2,SizingPeriod: ANCHORAGEMERRILLFIELDANNCLG.4CONDNSWBMDB,4.5876081434E-005,9.1138062085E-005,Pass,Pass,1.5855732372E-002,2.8818670997E-002,Pass,Pass
 Warmup Convergence Information,02_B2,SizingPeriod: ANCHORAGEMERRILLFIELDANNCLG.4CONDNSWBMDB,2.7962582032E-005,4.8237925215E-005,Pass,Pass,1.9595191702E-002,2.9501235207E-002,Pass,Pass
 Warmup Convergence Information,02_C1,SizingPeriod: ANCHORAGEMERRILLFIELDANNCLG.4CONDNSWBMDB,2.9083599346E-005,5.4734254646E-005,Pass,Pass,1.8265322045E-002,2.9310057560E-002,Pass,Pass
 Warmup Convergence Information,03_A1,SizingPeriod: ANCHORAGEMERRILLFIELDANNCLG.4CONDNSWBMDB,3.1381879134E-005,7.3284103632E-005,Pass,Pass,1.6191672394E-002,3.4520994799E-002,Pass,Pass
 Warmup Convergence Information,03_A2,SizingPeriod: ANCHORAGEMERRILLFIELDANNCLG.4CONDNSWBMDB,3.2777164645E-005,7.1301648958E-005,Pass,Pass,1.7817762188E-002,3.3134742692E-002,Pass,Pass
 Warmup Convergence Information,03_B2,SizingPeriod: ANCHORAGEMERRILLFIELDANNCLG.4CONDNSWBMDB,2.5969540081E-005,4.5624560778E-005,Pass,Pass,2.1324184182E-002,3.3197543659E-002,Pass,Pass
 Warmup Convergence Information,03_C1,SizingPeriod: ANCHORAGEMERRILLFIELDANNCLG.4CONDNSWBMDB,2.6966518917E-005,5.1686679567E-005,Pass,Pass,2.0025523091E-002,3.2815168748E-002,Pass,Pass
Environment,ANCHORAGEMERRILLFIELDANNHTG99.6CONDNSDB,SizingPeriod:DesignDay,01/21,01/21,WinterDesignDay,1,N/A,N/A,N/A,N/A,N/A,N/A
Environment:Daylight Saving,No,SizingPeriod:DesignDay
Environment:Design Day Data,-23.90,0.00,DefaultMultipliers,100821,100,0.7,0.00,No,No
Environment:Design Day Misc, 21,1229.0,0.1415,5.7310E-002,1.0,-11.15,-20.1,ASHRAEClearSky
Environment:WarmupDays,  6
 Warmup Convergence Information,01_A1,SizingPeriod: ANCHORAGEMERRILLFIELDANNHTG99.6CONDNSDB,7.1667838858E-002,8.1314843001E-002,Pass,Pass,9.8768732561E-003,3.0347355254E-002,Pass,Pass
 Warmup Convergence Information,01_A2,SizingPeriod: ANCHORAGEMERRILLFIELDANNHTG99.6CONDNSDB,9.3882567329E-002,0.1085744565,Pass,Pass,1.3900992987E-002,2.9166551017E-002,Pass,Pass
 Warmup Convergence Information,01_B2,SizingPeriod: ANCHORAGEMERRILLFIELDANNHTG99.6CONDNSDB,6.3359107578E-002,6.4752799805E-002,Pass,Pass,4.8114611701E-003,8.5881941750E-003,Pass,Pass
 Warmup Convergence Information,01_C1,SizingPeriod: ANCHORAGEMERRILLFIELDANNHTG99.6CONDNSDB,5.7791766356E-002,5.8949833834E-002,Pass,Pass,4.0379764245E-003,7.1131936878E-003,Pass,Pass
 Warmup Convergence Information,02_A1,SizingPeriod: ANCHORAGEMERRILLFIELDANNHTG99.6CONDNSDB,1.9122202200E-002,3.1226372158E-002,Pass,Pass,1.7143688519E-002,4.5838275753E-002,Pass,Pass
 Warmup Convergence Information,02_A2,SizingPeriod: ANCHORAGEMERRILLFIELDANNHTG99.6CONDNSDB,4.4562134957E-002,5.6618100275E-002,Pass,Pass,1.5353454888E-002,4.1687629149E-002,Pass,Pass
 Warmup Convergence Information,02_B2,SizingPeriod: ANCHORAGEMERRILLFIELDANNHTG99.6CONDNSDB,4.8669636681E-002,5.1482817557E-002,Pass,Pass,1.0579689029E-002,2.6385491135E-002,Pass,Pass
 Warmup Convergence Information,02_C1,SizingPeriod: ANCHORAGEMERRILLFIELDANNHTG99.6CONDNSDB,4.1222559779E-002,4.6563716126E-002,Pass,Pass,1.1827516772E-002,3.4561335622E-002,Pass,Pass
 Warmup Convergence Information,03_A1,SizingPeriod: ANCHORAGEMERRILLFIELDANNHTG99.6CONDNSDB,3.4172157144E-002,4.0660501678E-002,Pass,Pass,1.6176558530E-002,4.8495296270E-002,Pass,Pass
 Warmup Convergence Information,03_A2,SizingPeriod: ANCHORAGEMERRILLFIELDANNHTG99.6CONDNSDB,4.8032028692E-002,5.2474621247E-002,Pass,Pass,1.4234922792E-002,5.3904089348E-002,Pass,Pass
 Warmup Convergence Information,03_B2,SizingPeriod: ANCHORAGEMERRILLFIELDANNHTG99.6CONDNSDB,6.0904086805E-002,5.9474216125E-002,Pass,Pass,7.8252108273E-003,1.3800722742E-002,Pass,Pass
 Warmup Convergence Information,03_C1,SizingPeriod: ANCHORAGEMERRILLFIELDANNHTG99.6CONDNSDB,5.4941945319E-002,5.3546870953E-002,Pass,Pass,7.0392853127E-003,1.2178030753E-002,Pass,Pass
Environment,ANCHORAGEMERRILLFIELDANNHTGWIND99.6CONDNSWSMCDB,SizingPeriod:DesignDay,01/21,01/21,WinterDesignDay,1,N/A,N/A,N/A,N/A,N/A,N/A
Environment:Daylight Saving,No,SizingPeriod:DesignDay
Environment:Design Day Data,-7.50,0.00,DefaultMultipliers,100821,100,8.1,0.00,No,No
Environment:Design Day Misc, 21,1229.0,0.1415,5.7310E-002,1.0,-11.15,-20.1,ASHRAEClearSky
Environment:WarmupDays,  6
 Warmup Convergence Information,01_A1,SizingPeriod: ANCHORAGEMERRILLFIELDANNHTGWIND99.6CONDNSWSMCDB,3.3965814774E-002,5.2325339550E-002,Pass,Pass,2.0730361337E-002,6.4807116617E-002,Pass,Pass
 Warmup Convergence Information,01_A2,SizingPeriod: ANCHORAGEMERRILLFIELDANNHTGWIND99.6CONDNSWSMCDB,3.5996177445E-002,6.6321866106E-002,Pass,Pass,2.2457481662E-002,5.6777744429E-002,Pass,Pass
 Warmup Convergence Information,01_B2,SizingPeriod: ANCHORAGEMERRILLFIELDANNHTGWIND99.6CONDNSWSMCDB,4.1497877366E-002,6.1725126351E-002,Pass,Pass,3.1307364202E-002,7.9634878433E-002,Pass,Pass
 Warmup Convergence Information,01_C1,SizingPeriod: ANCHORAGEMERRILLFIELDANNHTGWIND99.6CONDNSWSMCDB,4.1194258315E-002,5.7960414542E-002,Pass,Pass,2.7210627134E-002,6.6395606183E-002,Pass,Pass
 Warmup Convergence Information,02_A1,SizingPeriod: ANCHORAGEMERRILLFIELDANNHTGWIND99.6CONDNSWSMCDB,2.0731945845E-005,4.2346026608E-005,Pass,Pass,1.8222827970E-002,4.2443216011E-002,Pass,Pass
 Warmup Convergence Information,02_A2,SizingPeriod: ANCHORAGEMERRILLFIELDANNHTGWIND99.6CONDNSWSMCDB,2.9294623320E-005,5.7054465490E-005,Pass,Pass,1.8836112584E-002,4.2844551581E-002,Pass,Pass
 Warmup Convergence Information,02_B2,SizingPeriod: ANCHORAGEMERRILLFIELDANNHTGWIND99.6CONDNSWSMCDB,2.0908348318E-003,6.8201646784E-003,Pass,Pass,2.5032636585E-002,6.2386851364E-002,Pass,Pass
 Warmup Convergence Information,02_C1,SizingPeriod: ANCHORAGEMERRILLFIELDANNHTGWIND99.6CONDNSWSMCDB,8.1922736547E-004,4.2394622299E-003,Pass,Pass,2.5821899694E-002,5.9354088601E-002,Pass,Pass
 Warmup Convergence Information,03_A1,SizingPeriod: ANCHORAGEMERRILLFIELDANNHTGWIND99.6CONDNSWSMCDB,2.0033332661E-005,4.4126076109E-005,Pass,Pass,2.0169236742E-002,5.0959459861E-002,Pass,Pass
 Warmup Convergence Information,03_A2,SizingPeriod: ANCHORAGEMERRILLFIELDANNHTGWIND99.6CONDNSWSMCDB,1.8271227608E-005,4.2670084730E-005,Pass,Pass,2.2286860366E-002,5.7886018397E-002,Pass,Pass
 Warmup Convergence Information,03_B2,SizingPeriod: ANCHORAGEMERRILLFIELDANNHTGWIND99.6CONDNSWSMCDB,6.5846468285E-003,1.6740764645E-002,Pass,Pass,2.5995265027E-002,7.3840566791E-002,Pass,Pass
 Warmup Convergence Information,03_C1,SizingPeriod: ANCHORAGEMERRILLFIELDANNHTGWIND99.6CONDNSWSMCDB,4.7048107036E-003,1.2675620502E-002,Pass,Pass,2.6333765031E-002,7.1264966680E-002,Pass,Pass
Environment,ANCHORAGEMERRILLFIELDANNHUM_N99.6CONDNSDPMCDB,SizingPeriod:DesignDay,01/21,01/21,WinterDesignDay,1,N/A,N/A,N/A,N/A,N/A,N/A
Environment:Daylight Saving,No,SizingPeriod:DesignDay
Environment:Design Day Data,-22.30,0.00,DefaultMultipliers,100821,100,0.7,0.00,No,No
Environment:Design Day Misc, 21,1229.0,0.1415,5.7310E-002,1.0,-11.15,-20.1,ASHRAEClearSky
Environment:WarmupDays,  6
 Warmup Convergence Information,01_A1,SizingPeriod: ANCHORAGEMERRILLFIELDANNHUM_N99.6CONDNSDPMCDB,6.8212491028E-002,8.0789982061E-002,Pass,Pass,1.0663696139E-002,3.8717585062E-002,Pass,Pass
 Warmup Convergence Information,01_A2,SizingPeriod: ANCHORAGEMERRILLFIELDANNHUM_N99.6CONDNSDPMCDB,8.8798473758E-002,0.1066487273,Pass,Pass,1.4899410183E-002,3.4818600955E-002,Pass,Pass
 Warmup Convergence Information,01_B2,SizingPeriod: ANCHORAGEMERRILLFIELDANNHUM_N99.6CONDNSDPMCDB,6.3837245364E-002,6.6431769383E-002,Pass,Pass,4.7858850823E-003,8.7896896329E-003,Pass,Pass
 Warmup Convergence Information,01_C1,SizingPeriod: ANCHORAGEMERRILLFIELDANNHUM_N99.6CONDNSDPMCDB,5.8168948216E-002,6.0645914269E-002,Pass,Pass,4.0193667287E-003,7.3021392740E-003,Pass,Pass
 Warmup Convergence Information,02_A1,SizingPeriod: ANCHORAGEMERRILLFIELDANNHUM_N99.6CONDNSDPMCDB,1.5004151839E-002,2.9690049577E-002,Pass,Pass,1.8011818879E-002,4.4760195192E-002,Pass,Pass
 Warmup Convergence Information,02_A2,SizingPeriod: ANCHORAGEMERRILLFIELDANNHUM_N99.6CONDNSDPMCDB,3.6891324098E-002,4.9062450078E-002,Pass,Pass,1.5432573795E-002,4.0996572716E-002,Pass,Pass
 Warmup Convergence Information,02_B2,SizingPeriod: ANCHORAGEMERRILLFIELDANNHUM_N99.6CONDNSDPMCDB,4.0979270469E-002,5.1545961967E-002,Pass,Pass,1.4838800982E-002,4.3369175389E-002,Pass,Pass
 Warmup Convergence Information,02_C1,SizingPeriod: ANCHORAGEMERRILLFIELDANNHUM_N99.6CONDNSDPMCDB,3.4689220420E-002,4.5289063972E-002,Pass,Pass,1.4665626242E-002,4.4837025373E-002,Pass,Pass
 Warmup Convergence Information,03_A1,SizingPeriod: ANCHORAGEMERRILLFIELDANNHUM_N99.6CONDNSDPMCDB,2.9025947968E-002,3.9319326977E-002,Pass,Pass,1.7155521507E-002,4.9416648824E-002,Pass,Pass
 Warmup Convergence Information,03_A2,SizingPeriod: ANCHORAGEMERRILLFIELDANNHUM_N99.6CONDNSDPMCDB,4.1667048505E-002,4.7966218383E-002,Pass,Pass,1.5221358587E-002,5.3430466289E-002,Pass,Pass
 Warmup Convergence Information,03_B2,SizingPeriod: ANCHORAGEMERRILLFIELDANNHUM_N99.6CONDNSDPMCDB,5.6767636824E-002,6.0788470871E-002,Pass,Pass,1.2540305362E-002,3.0355390007E-002,Pass,Pass
 Warmup Convergence Information,03_C1,SizingPeriod: ANCHORAGEMERRILLFIELDANNHUM_N99.6CONDNSDPMCDB,4.9285998341E-002,5.5081454292E-002,Pass,Pass,1.2608721771E-002,3.4014493216E-002,Pass,Pass
Environment,RUN PERIOD 1,WeatherFileRunPeriod,01/01,12/31,Sunday,365,Use RunPeriod Specified Day,No,No,No,Yes,Yes
Environment:Daylight Saving,No,RunPeriod Object
Environment:WarmupDays,  6
 Warmup Convergence Information,01_A1,RunPeriod: RUN PERIOD 1,8.7010969200E-002,0.2263542050,Pass,Pass,3.2776478944E-002,9.6026075619E-002,Pass,Pass
 Warmup Convergence Information,01_A2,RunPeriod: RUN PERIOD 1,0.1080320367,0.4285047733,Pass,Pass,6.5823690403E-002,0.1930404943,Pass,Pass
 Warmup Convergence Information,01_B2,RunPeriod: RUN PERIOD 1,7.8830686825E-002,0.2112065999,Pass,Pass,5.9070024920E-002,0.1742351920,Pass,Pass
 Warmup Convergence Information,01_C1,RunPeriod: RUN PERIOD 1,7.3746883460E-002,0.1788657128,Pass,Pass,3.6723299863E-002,0.1501994135,Pass,Pass
 Warmup Convergence Information,02_A1,RunPeriod: RUN PERIOD 1,6.1935133470E-002,0.2282362694,Pass,Pass,4.2723912418E-002,0.1117278889,Pass,Pass
 Warmup Convergence Information,02_A2,RunPeriod: RUN PERIOD 1,9.4786574057E-002,0.3781110344,Pass,Pass,7.4891129976E-002,0.1748799102,Pass,Pass
 Warmup Convergence Information,02_B2,RunPeriod: RUN PERIOD 1,5.5168977857E-002,0.2048983265,Pass,Pass,0.1320165255,0.4030036059,Pass,Pass
 Warmup Convergence Information,02_C1,RunPeriod: RUN PERIOD 1,5.0446682215E-002,0.1808766158,Pass,Pass,3.8966830972E-002,0.1112862256,Pass,Pass
 Warmup Convergence Information,03_A1,RunPeriod: RUN PERIOD 1,7.7894568603E-002,0.2575992855,Pass,Pass,4.2365939085E-002,0.1173660198,Pass,Pass
 Warmup Convergence Information,03_A2,RunPeriod: RUN PERIOD 1,9.0156545051E-002,0.2753289683,Pass,Pass,9.8294383555E-002,0.3031763203,Pass,Pass
 Warmup Convergence Information,03_B2,RunPeriod: RUN PERIOD 1,7.3820844742E-002,0.2442791394,Pass,Pass,0.1125242320,0.2989790352,Pass,Pass
 Warmup Convergence Information,03_C1,RunPeriod: RUN PERIOD 1,6.6483805476E-002,0.2175462058,Pass,Pass,4.9150438516E-002,0.1534027639,Pass,Pass
! <Program Control Information:Threads/Parallel Sims>, Threading Supported,Maximum Number of Threads, Env Set Threads (OMP_NUM_THREADS), EP Env Set Threads (EP_OMP_NUM_THREADS), IDF Set Threads, Number of Threads Used (Interior Radiant Exchange), Number Nominal Surfaces, Number Parallel Sims
Program Control:Threads/Parallel Sims, No,1, N/A, N/A, N/A, N/A, N/A, N/A
End of Data
