Program Version,EnergyPlus, Version 8.9.0-40101eaafd, YMD=2018.05.31 16:17
! <Version>, Version ID
 Version, 8.9
! <Timesteps per Hour>, #TimeSteps, Minutes per TimeStep {minutes}
 Timesteps per Hour,  6, 10
! <System Convergence Limits>, Minimum System TimeStep {minutes}, Max HVAC Iterations, Minimum Plant Iterations, Maximum Plant Iterations
 System Convergence Limits, 1, 20, 2, 8
! <Simulation Control>, Do Zone Sizing, Do System Sizing, Do Plant Sizing, Do Design Days, Do Weather Simulation, Do HVAC Sizing Simulation
 Simulation Control, Yes, Yes, No, Yes, Yes, No
! <Output Reporting Tolerances>, Tolerance for Time Heating Setpoint Not Met, Tolerance for Zone Cooling Setpoint Not Met Time
 Output Reporting Tolerances, 0.200, 0.200, 
! <Site:GroundTemperature:BuildingSurface>,Jan{C},Feb{C},Mar{C},Apr{C},May{C},Jun{C},Jul{C},Aug{C},Sep{C},Oct{C},Nov{C},Dec{C}
 Site:GroundTemperature:BuildingSurface,  18.00,  18.00,  18.00,  18.00,  18.00,  18.00,  18.00,  18.00,  18.00,  18.00,  18.00,  18.00
! <Site:GroundTemperature:FCfactorMethod>,Jan{C},Feb{C},Mar{C},Apr{C},May{C},Jun{C},Jul{C},Aug{C},Sep{C},Oct{C},Nov{C},Dec{C}
 Site:GroundTemperature:FCfactorMethod,  -1.17,  -4.55,  -5.47,  -4.67,  -0.10,   5.02,   9.83,  13.32,  14.34,  12.70,   8.75,   3.78
! <Site:GroundTemperature:Shallow>,Jan{C},Feb{C},Mar{C},Apr{C},May{C},Jun{C},Jul{C},Aug{C},Sep{C},Oct{C},Nov{C},Dec{C}
 Site:GroundTemperature:Shallow,  13.00,  13.00,  13.00,  13.00,  13.00,  13.00,  13.00,  13.00,  13.00,  13.00,  13.00,  13.00
! <Site:GroundTemperature:Deep>,Jan{C},Feb{C},Mar{C},Apr{C},May{C},Jun{C},Jul{C},Aug{C},Sep{C},Oct{C},Nov{C},Dec{C}
 Site:GroundTemperature:Deep,  16.00,  16.00,  16.00,  16.00,  16.00,  16.00,  16.00,  16.00,  16.00,  16.00,  16.00,  16.00
! <Site:GroundReflectance>,Jan{dimensionless},Feb{dimensionless},Mar{dimensionless},Apr{dimensionless},May{dimensionless},Jun{dimensionless},Jul{dimensionless},Aug{dimensionless},Sep{dimensionless},Oct{dimensionless},Nov{dimensionless},Dec{dimensionless}
 Site:GroundReflectance,  0.20,  0.20,  0.20,  0.20,  0.20,  0.20,  0.20,  0.20,  0.20,  0.20,  0.20,  0.20
! <Site:GroundReflectance:SnowModifier>, Normal, Daylighting {dimensionless}
 Site:GroundReflectance:SnowModifier,   1.000,   1.000
! <Site:GroundReflectance:Snow>,Jan{dimensionless},Feb{dimensionless},Mar{dimensionless},Apr{dimensionless},May{dimensionless},Jun{dimensionless},Jul{dimensionless},Aug{dimensionless},Sep{dimensionless},Oct{dimensionless},Nov{dimensionless},Dec{dimensionless}
 Site:GroundReflectance:Snow,  0.20,  0.20,  0.20,  0.20,  0.20,  0.20,  0.20,  0.20,  0.20,  0.20,  0.20,  0.20
! <Site:GroundReflectance:Snow:Daylighting>,Jan{dimensionless},Feb{dimensionless},Mar{dimensionless},Apr{dimensionless},May{dimensionless},Jun{dimensionless},Jul{dimensionless},Aug{dimensionless},Sep{dimensionless},Oct{dimensionless},Nov{dimensionless},Dec{dimensionless}
 Site:GroundReflectance:Snow:Daylighting,  0.20,  0.20,  0.20,  0.20,  0.20,  0.20,  0.20,  0.20,  0.20,  0.20,  0.20,  0.20
! <Environment:Weather Station>,Wind Sensor Height Above Ground {m},Wind Speed Profile Exponent {},Wind Speed Profile Boundary Layer Thickness {m},Air Temperature Sensor Height Above Ground {m},Wind Speed Modifier Coefficient-Internal,Temperature Modifier Coefficient-Internal
Environment:Weather Station,10.000,0.140,270.000,1.500,1.586,9.750E-003
! <Site:Location>, Location Name, Latitude {N+/S- Deg}, Longitude {E+/W- Deg},  Time Zone Number {GMT+/-}, Elevation {m},  Standard Pressure at Elevation {Pa}, Standard RhoAir at Elevation
Site:Location,Anchorage Merrill Field AK USA TMY3 WMO#=702735,61.22,-149.85,-9.00,42.00,100821,1.1983
! <Building Information>, Building Name,North Axis {deg},Terrain,  Loads Convergence Tolerance Value,Temperature Convergence Tolerance Value,  Solar Distribution,Maximum Number of Warmup Days,Minimum Number of Warmup Days
 Building Information,KA2 A Flatroof Sample Building,90.000,Suburbs,4.00000E-002,0.40000,FullExterior,25,6
! <Inside Convection Algorithm>, Algorithm {Simple | TARP | CeilingDiffuser | AdaptiveConvectionAlgorithm}
Inside Convection Algorithm,TARP
! <Outside Convection Algorithm>, Algorithm {SimpleCombined | TARP | MoWitt | DOE-2 | AdaptiveConvectionAlgorithm}
Outside Convection Algorithm,DOE-2
! <Sky Radiance Distribution>, Value {Anisotropic}
Sky Radiance Distribution,Anisotropic
! <Zone Air Solution Algorithm>, Value {ThirdOrderBackwardDifference | AnalyticalSolution | EulerMethod}
 Zone Air Solution Algorithm, ThirdOrderBackwardDifference
! <Zone Air Carbon Dioxide Balance Simulation>, Simulation {Yes/No}, Carbon Dioxide Concentration
 Zone Air Carbon Dioxide Balance Simulation, No,N/A
! <Zone Air Generic Contaminant Balance Simulation>, Simulation {Yes/No}, Generic Contaminant Concentration
 Zone Air Generic Contaminant Balance Simulation, No,N/A
! <Zone Air Mass Flow Balance Simulation>, Enforce Mass Balance, Adjust Zone Mixing, Adjust Zone Infiltration {AddInfiltration | AdjustInfiltration | None}, Infiltration Zones {MixingSourceZonesOnly | AllZones}
 Zone Air Mass Flow Balance Simulation, No,N/A,N/A,N/A
! <HVACSystemRootFindingAlgorithm>, Value {RegulaFalsi | Bisection | BisectionThenRegulaFalsi | RegulaFalsiThenBisection}
 HVACSystemRootFindingAlgorithm, RegulaFalsi
! <Environment:Site Atmospheric Variation>,Wind Speed Profile Exponent {},Wind Speed Profile Boundary Layer Thickness {m},Air Temperature Gradient Coefficient {K/m}
Environment:Site Atmospheric Variation,0.220,370.000,6.500000E-003
! <Surface Geometry>,Starting Corner,Vertex Input Direction,Coordinate System,Daylight Reference Point Coordinate System,Rectangular (Simple) Surface Coordinate System
 Surface Geometry,UpperLeftCorner,Counterclockwise,RelativeCoordinateSystem,RelativeCoordinateSystem,RelativeToZoneOrigin
! <Surface Heat Transfer Algorithm>, Value {CTF - ConductionTransferFunction | EMPD - MoisturePenetrationDepthConductionTransferFunction | CondFD - ConductionFiniteDifference | HAMT - CombinedHeatAndMoistureFiniteElement} - Description,Inside Surface Max Temperature Limit{C}, Surface Convection Coefficient Lower Limit {W/m2-K}, Surface Convection Coefficient Upper Limit {W/m2-K}
Surface Heat Transfer Algorithm, CTF - ConductionTransferFunction,200,0.10,1000.0
! <Shading Summary>, Number of Fixed Detached Shades, Number of Building Detached Shades, Number of Attached Shades
 Shading Summary,0,0,18
! <Zone Summary>, Number of Zones, Number of Zone Surfaces, Number of SubSurfaces
 Zone Summary,12,174,66
! <Zone Information>,Zone Name,North Axis {deg},Origin X-Coordinate {m},Origin Y-Coordinate {m},Origin Z-Coordinate {m},Centroid X-Coordinate {m},Centroid Y-Coordinate {m},Centroid Z-Coordinate {m},Type,Zone Multiplier,Zone List Multiplier,Minimum X {m},Maximum X {m},Minimum Y {m},Maximum Y {m},Minimum Z {m},Maximum Z {m},Ceiling Height {m},Volume {m3},Zone Inside Convection Algorithm {Simple-Detailed-CeilingDiffuser-TrombeWall},Zone Outside Convection Algorithm {Simple-Detailed-Tarp-MoWitt-DOE-2-BLAST}, Floor Area {m2},Exterior Gross Wall Area {m2},Exterior Net Wall Area {m2},Exterior Window Area {m2}, Number of Surfaces, Number of SubSurfaces, Number of Shading SubSurfaces,  Part of Total Building Area
 Zone Information, 01_A1,0.0,19.48,4.60,0.00,8.26,-15.54,1.68,1,1,1,4.60,11.91,-19.48,-11.61,0.00,3.35,3.35,193.12,CeilingDiffuser,DOE-2,57.60,56.55,48.29,6.31,7,3,2,Yes
 Zone Information, 01_A2,0.0,2.46,8.26,0.00,8.32,-6.52,1.68,1,1,1,4.60,11.91,-11.61,-2.46,0.00,3.35,3.35,208.70,TARP,DOE-2,62.25,85.84,77.06,6.83,8,4,2,Yes
 Zone Information, 01_B2,0.0,2.16,21.21,0.00,21.12,-6.09,1.68,1,1,1,14.96,25.63,-11.61,-2.16,0.00,3.35,3.35,324.46,CeilingDiffuser,DOE-2,96.77,99.13,83.98,13.20,10,7,2,Yes
 Zone Information, 01_C1,0.0,18.92,25.63,1.26E-030,18.67,-16.14,1.68,1,1,1,11.91,25.63,-20.75,-11.61,6.28E-031,3.35,3.35,380.95,CeilingDiffuser,DOE-2,113.62,96.74,80.17,14.63,11,8,2,Yes
 Zone Information, 02_A1,0.0,19.48,4.60,3.35,8.26,-15.54,5.03,1,1,1,4.60,11.91,-19.48,-11.61,3.35,6.71,3.35,193.12,CeilingDiffuser,DOE-2,57.60,56.55,47.80,6.79,7,3,2,Yes
 Zone Information, 02_A2,0.0,2.46,8.26,3.35,8.32,-6.52,5.03,1,1,1,4.60,11.91,-11.61,-2.46,3.35,6.71,3.35,208.70,TARP,DOE-2,62.25,85.84,76.33,7.56,8,4,2,Yes
 Zone Information, 02_B2,0.0,2.16,21.21,3.35,21.12,-6.09,5.03,1,1,1,14.96,25.63,-11.61,-2.16,3.35,6.71,3.35,324.46,CeilingDiffuser,DOE-2,96.77,99.13,81.69,15.49,10,7,2,Yes
 Zone Information, 02_C1,0.0,18.92,25.63,3.35,18.67,-16.14,5.03,1,1,1,11.91,25.63,-20.75,-11.61,3.35,6.71,3.35,380.95,CeilingDiffuser,DOE-2,113.62,96.74,77.21,17.58,11,8,2,Yes
 Zone Information, 03_A1,0.0,19.48,4.60,6.71,8.26,-15.54,8.38,1,1,1,4.60,11.91,-19.48,-11.61,6.71,10.06,3.35,193.12,CeilingDiffuser,DOE-2,57.60,56.55,47.80,6.79,7,3,0,Yes
 Zone Information, 03_A2,0.0,2.46,8.26,6.71,8.32,-6.52,8.38,1,1,1,4.60,11.91,-11.61,-2.46,6.71,10.06,3.35,208.70,CeilingDiffuser,DOE-2,62.25,85.84,76.33,7.56,8,4,0,Yes
 Zone Information, 03_B2,0.0,2.16,21.21,6.71,21.12,-6.09,8.38,1,1,1,14.96,25.63,-11.61,-2.16,6.71,10.06,3.35,324.46,CeilingDiffuser,DOE-2,96.77,99.13,81.69,15.49,10,7,0,Yes
 Zone Information, 03_C1,0.0,18.92,25.63,6.71,18.67,-16.14,8.38,1,1,1,11.91,25.63,-20.75,-11.61,6.71,10.06,3.35,380.95,CeilingDiffuser,DOE-2,113.62,96.74,77.21,17.58,11,8,2,Yes
! <Zone Internal Gains Nominal>,Zone Name, Floor Area {m2},# Occupants,Area per Occupant {m2/person},Occupant per Area {person/m2},Interior Lighting {W/m2},Electric Load {W/m2},Gas Load {W/m2},Other Load {W/m2},Hot Water Eq {W/m2},Steam Equipment {W/m2},Sum Loads per Area {W/m2},Outdoor Controlled Baseboard Heat
 Zone Internal Gains Nominal, 01_A1,57.60,1.6,37.161,2.691E-002,4.127,87.268,0.000,0.000,0.000,0.000,91.395,No
 Zone Internal Gains Nominal, 01_A2,62.25,1.6,40.158,2.490E-002,3.729,80.755,0.000,0.000,0.000,0.000,84.484,No
 Zone Internal Gains Nominal, 01_B2,96.77,2.5,39.180,2.552E-002,3.260,56.045,0.000,0.000,0.000,0.000,59.305,No
 Zone Internal Gains Nominal, 01_C1,113.62,3.4,33.516,2.984E-002,3.085,49.676,0.000,0.000,0.000,0.000,52.761,No
 Zone Internal Gains Nominal, 02_A1,57.60,1.6,37.161,2.691E-002,4.127,87.268,0.000,0.000,0.000,0.000,91.395,No
 Zone Internal Gains Nominal, 02_A2,62.25,1.6,40.158,2.490E-002,3.729,80.755,0.000,0.000,0.000,0.000,84.484,No
 Zone Internal Gains Nominal, 02_B2,96.77,2.5,39.180,2.552E-002,3.260,56.045,0.000,0.000,0.000,0.000,59.305,No
 Zone Internal Gains Nominal, 02_C1,113.62,3.4,33.516,2.984E-002,3.085,49.676,0.000,0.000,0.000,0.000,52.761,No
 Zone Internal Gains Nominal, 03_A1,57.60,1.6,37.161,2.691E-002,4.127,87.268,0.000,0.000,0.000,0.000,91.395,No
 Zone Internal Gains Nominal, 03_A2,62.25,1.6,40.158,2.490E-002,3.729,80.755,0.000,0.000,0.000,0.000,84.484,No
 Zone Internal Gains Nominal, 03_B2,96.77,2.5,39.180,2.552E-002,3.260,56.045,0.000,0.000,0.000,0.000,59.305,No
 Zone Internal Gains Nominal, 03_C1,113.62,3.4,33.516,2.984E-002,3.085,49.676,0.000,0.000,0.000,0.000,52.761,No
! <People Internal Gains Nominal>,Name,Schedule Name,Zone Name,Zone Floor Area {m2},# Zone Occupants,Number of People {},People/Floor Area {person/m2},Floor Area per person {m2/person},Fraction Radiant,Fraction Convected,Sensible Fraction Calculation,Activity level,ASHRAE 55 Warnings,Carbon Dioxide Generation Rate,Nominal Minimum Number of People,Nominal Maximum Number of People
 People Internal Gains Nominal, 01_A1 PEOPLE 1,OCCPROTOCOL,01_A1,57.60,1.6,1.6,2.691E-002,37.161,0.300,0.700,AutoCalculate,MIDRISEAPARTMENT ACTIVITYDOE,No,3.8200E-008,0,2
 People Internal Gains Nominal, 02_A1 PEOPLE 1,OCCPROTOCOL,02_A1,57.60,1.6,1.6,2.691E-002,37.161,0.300,0.700,AutoCalculate,MIDRISEAPARTMENT ACTIVITYDOE,No,3.8200E-008,0,2
 People Internal Gains Nominal, 03_A1 PEOPLE 1,OCCPROTOCOL,03_A1,57.60,1.6,1.6,2.691E-002,37.161,0.300,0.700,AutoCalculate,MIDRISEAPARTMENT ACTIVITYDOE,No,3.8200E-008,0,2
 People Internal Gains Nominal, 01_A2 PEOPLE 2,OCCPROTOCOL,01_A2,62.25,1.6,1.6,2.490E-002,40.158,0.300,0.700,AutoCalculate,MIDRISEAPARTMENT ACTIVITYDOE,No,3.8200E-008,0,2
 People Internal Gains Nominal, 02_A2 PEOPLE 2,OCCPROTOCOL,02_A2,62.25,1.6,1.6,2.490E-002,40.158,0.300,0.700,AutoCalculate,MIDRISEAPARTMENT ACTIVITYDOE,No,3.8200E-008,0,2
 People Internal Gains Nominal, 03_A2 PEOPLE 2,OCCPROTOCOL,03_A2,62.25,1.6,1.6,2.490E-002,40.158,0.300,0.700,AutoCalculate,MIDRISEAPARTMENT ACTIVITYDOE,No,3.8200E-008,0,2
 People Internal Gains Nominal, 01_B2 PEOPLE 6,OCCPROTOCOL,01_B2,96.77,2.5,2.5,2.552E-002,39.180,0.300,0.700,AutoCalculate,MIDRISEAPARTMENT ACTIVITYDOE,No,3.8200E-008,1,2
 People Internal Gains Nominal, 02_B2 PEOPLE 6,OCCPROTOCOL,02_B2,96.77,2.5,2.5,2.552E-002,39.180,0.300,0.700,AutoCalculate,MIDRISEAPARTMENT ACTIVITYDOE,No,3.8200E-008,1,2
 People Internal Gains Nominal, 03_B2 PEOPLE 6,OCCPROTOCOL,03_B2,96.77,2.5,2.5,2.552E-002,39.180,0.300,0.700,AutoCalculate,MIDRISEAPARTMENT ACTIVITYDOE,No,3.8200E-008,1,2
 People Internal Gains Nominal, 01_C1 PEOPLE 7,OCCPROTOCOL,01_C1,113.62,3.4,3.4,2.984E-002,33.516,0.300,0.700,AutoCalculate,MIDRISEAPARTMENT ACTIVITYDOE,No,3.8200E-008,1,3
 People Internal Gains Nominal, 02_C1 PEOPLE 7,OCCPROTOCOL,02_C1,113.62,3.4,3.4,2.984E-002,33.516,0.300,0.700,AutoCalculate,MIDRISEAPARTMENT ACTIVITYDOE,No,3.8200E-008,1,3
 People Internal Gains Nominal, 03_C1 PEOPLE 7,OCCPROTOCOL,03_C1,113.62,3.4,3.4,2.984E-002,33.516,0.300,0.700,AutoCalculate,MIDRISEAPARTMENT ACTIVITYDOE,No,3.8200E-008,1,3
! <Lights Internal Gains Nominal>,Name,Schedule Name,Zone Name,Zone Floor Area {m2},# Zone Occupants,Lighting Level {W},Lights/Floor Area {W/m2},Lights per person {W/person},Fraction Return Air,Fraction Radiant,Fraction Short Wave,Fraction Convected,Fraction Replaceable,End-Use Category,Nominal Minimum Lighting Level {W},Nominal Maximum Lighting Level {W}
 Lights Internal Gains Nominal, 01_A1 LIGHTS 2,MIDRISEAPARTMENT APARTMENT LIGHTDOE,01_A1,57.60,1.6,237.708,4.127,153.360,0.000,0.000,0.000,1.000,1.000,General,4.754,237.708
 Lights Internal Gains Nominal, 02_A1 LIGHTS 2,MIDRISEAPARTMENT APARTMENT LIGHTDOE,02_A1,57.60,1.6,237.708,4.127,153.360,0.000,0.000,0.000,1.000,1.000,General,4.754,237.708
 Lights Internal Gains Nominal, 03_A1 LIGHTS 2,MIDRISEAPARTMENT APARTMENT LIGHTDOE,03_A1,57.60,1.6,237.708,4.127,153.360,0.000,0.000,0.000,1.000,1.000,General,4.754,237.708
 Lights Internal Gains Nominal, 01_A2 LIGHTS 3,MIDRISEAPARTMENT APARTMENT LIGHTDOE,01_A2,62.25,1.6,232.088,3.729,149.734,0.000,0.000,0.000,1.000,1.000,General,4.642,232.088
 Lights Internal Gains Nominal, 02_A2 LIGHTS 3,MIDRISEAPARTMENT APARTMENT LIGHTDOE,02_A2,62.25,1.6,232.088,3.729,149.734,0.000,0.000,0.000,1.000,1.000,General,4.642,232.088
 Lights Internal Gains Nominal, 03_A2 LIGHTS 3,MIDRISEAPARTMENT APARTMENT LIGHTDOE,03_A2,62.25,1.6,232.088,3.729,149.734,0.000,0.000,0.000,1.000,1.000,General,4.642,232.088
 Lights Internal Gains Nominal, 01_B2 LIGHTS 7,MIDRISEAPARTMENT APARTMENT LIGHTDOE,01_B2,96.77,2.5,315.521,3.260,127.741,0.000,0.000,0.000,1.000,1.000,General,6.310,315.521
 Lights Internal Gains Nominal, 02_B2 LIGHTS 7,MIDRISEAPARTMENT APARTMENT LIGHTDOE,02_B2,96.77,2.5,315.521,3.260,127.741,0.000,0.000,0.000,1.000,1.000,General,6.310,315.521
 Lights Internal Gains Nominal, 03_B2 LIGHTS 7,MIDRISEAPARTMENT APARTMENT LIGHTDOE,03_B2,96.77,2.5,315.521,3.260,127.741,0.000,0.000,0.000,1.000,1.000,General,6.310,315.521
 Lights Internal Gains Nominal, 01_C1 LIGHTS 8,MIDRISEAPARTMENT APARTMENT LIGHTDOE,01_C1,113.62,3.4,350.512,3.085,103.396,0.000,0.000,0.000,1.000,1.000,General,7.010,350.512
 Lights Internal Gains Nominal, 02_C1 LIGHTS 8,MIDRISEAPARTMENT APARTMENT LIGHTDOE,02_C1,113.62,3.4,350.512,3.085,103.396,0.000,0.000,0.000,1.000,1.000,General,7.010,350.512
 Lights Internal Gains Nominal, 03_C1 LIGHTS 8,MIDRISEAPARTMENT APARTMENT LIGHTDOE,03_C1,113.62,3.4,350.512,3.085,103.396,0.000,0.000,0.000,1.000,1.000,General,7.010,350.512
! <ElectricEquipment Internal Gains Nominal>,Name,Schedule Name,Zone Name,Zone Floor Area {m2},# Zone Occupants,Equipment Level {W},Equipment/Floor Area {W/m2},Equipment per person {W/person},Fraction Latent,Fraction Radiant,Fraction Lost,Fraction Convected,End-Use SubCategory,Nominal Minimum Equipment Level {W},Nominal Maximum Equipment Level {W}
 ElectricEquipment Internal Gains Nominal, 01_A1 ELECTRIC EQUIPMENT 19,APARTMENTMIDRISE EQP_CLOTHESDRYER,01_A1,57.60,1.6,1699.556,29.506,1096.487,5.000E-002,0.150,0.000,0.800,General,3.399,1699.556
 ElectricEquipment Internal Gains Nominal, 02_A1 ELECTRIC EQUIPMENT 19,APARTMENTMIDRISE EQP_CLOTHESDRYER,02_A1,57.60,1.6,1699.556,29.506,1096.487,5.000E-002,0.150,0.000,0.800,General,3.399,1699.556
 ElectricEquipment Internal Gains Nominal, 03_A1 ELECTRIC EQUIPMENT 19,APARTMENTMIDRISE EQP_CLOTHESDRYER,03_A1,57.60,1.6,1699.556,29.506,1096.487,5.000E-002,0.150,0.000,0.800,General,3.399,1699.556
 ElectricEquipment Internal Gains Nominal, 01_A1 ELECTRIC EQUIPMENT 20,APARTMENTMIDRISE EQP_CLOTHESWASHER,01_A1,57.60,1.6,350.000,6.076,225.806,0.000,0.800,0.000,0.200,General,1.225,350.000
 ElectricEquipment Internal Gains Nominal, 02_A1 ELECTRIC EQUIPMENT 20,APARTMENTMIDRISE EQP_CLOTHESWASHER,02_A1,57.60,1.6,350.000,6.076,225.806,0.000,0.800,0.000,0.200,General,1.225,350.000
 ElectricEquipment Internal Gains Nominal, 03_A1 ELECTRIC EQUIPMENT 20,APARTMENTMIDRISE EQP_CLOTHESWASHER,03_A1,57.60,1.6,350.000,6.076,225.806,0.000,0.800,0.000,0.200,General,1.225,350.000
 ElectricEquipment Internal Gains Nominal, 01_A1 ELECTRIC EQUIPMENT 22,APARTMENTMIDRISE EQP_DISHWASHER,01_A1,57.60,1.6,780.000,13.542,503.226,0.150,0.600,0.000,0.250,General,2.730,780.000
 ElectricEquipment Internal Gains Nominal, 02_A1 ELECTRIC EQUIPMENT 22,APARTMENTMIDRISE EQP_DISHWASHER,02_A1,57.60,1.6,780.000,13.542,503.226,0.150,0.600,0.000,0.250,General,2.730,780.000
 ElectricEquipment Internal Gains Nominal, 03_A1 ELECTRIC EQUIPMENT 22,APARTMENTMIDRISE EQP_DISHWASHER,03_A1,57.60,1.6,780.000,13.542,503.226,0.150,0.600,0.000,0.250,General,2.730,780.000
 ElectricEquipment Internal Gains Nominal, 01_A1 ELECTRIC EQUIPMENT 23,APARTMENTMIDRISE EQP_RANGE,01_A1,57.60,1.6,250.000,4.340,161.290,0.200,0.730,0.000,7.000E-002,General,0.800,250.000
 ElectricEquipment Internal Gains Nominal, 02_A1 ELECTRIC EQUIPMENT 23,APARTMENTMIDRISE EQP_RANGE,02_A1,57.60,1.6,250.000,4.340,161.290,0.200,0.730,0.000,7.000E-002,General,0.800,250.000
 ElectricEquipment Internal Gains Nominal, 03_A1 ELECTRIC EQUIPMENT 23,APARTMENTMIDRISE EQP_RANGE,03_A1,57.60,1.6,250.000,4.340,161.290,0.200,0.730,0.000,7.000E-002,General,0.800,250.000
 ElectricEquipment Internal Gains Nominal, 01_A1 ELECTRIC EQUIPMENT 24,APARTMENTMIDRISE EQP_RANGE,01_A1,57.60,1.6,176.471,3.064,113.852,0.300,0.400,0.000,0.300,General,0.565,176.471
 ElectricEquipment Internal Gains Nominal, 02_A1 ELECTRIC EQUIPMENT 24,APARTMENTMIDRISE EQP_RANGE,02_A1,57.60,1.6,176.471,3.064,113.852,0.300,0.400,0.000,0.300,General,0.565,176.471
 ElectricEquipment Internal Gains Nominal, 03_A1 ELECTRIC EQUIPMENT 24,APARTMENTMIDRISE EQP_RANGE,03_A1,57.60,1.6,176.471,3.064,113.852,0.300,0.400,0.000,0.300,General,0.565,176.471
 ElectricEquipment Internal Gains Nominal, 01_A1 ELECTRIC EQUIPMENT 25,APARTMENTMIDRISE EQP_REFRIGERATOR,01_A1,57.60,1.6,1200.000,20.833,774.194,0.000,1.000,0.000,0.000,General,43.476,1200.000
 ElectricEquipment Internal Gains Nominal, 02_A1 ELECTRIC EQUIPMENT 25,APARTMENTMIDRISE EQP_REFRIGERATOR,02_A1,57.60,1.6,1200.000,20.833,774.194,0.000,1.000,0.000,0.000,General,43.476,1200.000
 ElectricEquipment Internal Gains Nominal, 03_A1 ELECTRIC EQUIPMENT 25,APARTMENTMIDRISE EQP_REFRIGERATOR,03_A1,57.60,1.6,1200.000,20.833,774.194,0.000,1.000,0.000,0.000,General,43.476,1200.000
 ElectricEquipment Internal Gains Nominal, 01_A1 ELECTRIC EQUIPMENT 26,APARTMENTMIDRISE EQP_APT_SCH,01_A1,57.60,1.6,350.000,6.076,225.806,0.200,0.730,0.000,7.000E-002,General,8.540,350.000
 ElectricEquipment Internal Gains Nominal, 02_A1 ELECTRIC EQUIPMENT 26,APARTMENTMIDRISE EQP_APT_SCH,02_A1,57.60,1.6,350.000,6.076,225.806,0.200,0.730,0.000,7.000E-002,General,8.540,350.000
 ElectricEquipment Internal Gains Nominal, 03_A1 ELECTRIC EQUIPMENT 26,APARTMENTMIDRISE EQP_APT_SCH,03_A1,57.60,1.6,350.000,6.076,225.806,0.200,0.730,0.000,7.000E-002,General,8.540,350.000
 ElectricEquipment Internal Gains Nominal, 01_A1 ELECTRIC EQUIPMENT 3,APARTMENTMIDRISE EQP_RANGE,01_A1,57.60,1.6,220.588,3.830,142.315,0.300,0.400,0.000,0.300,General,0.706,220.588
 ElectricEquipment Internal Gains Nominal, 02_A1 ELECTRIC EQUIPMENT 3,APARTMENTMIDRISE EQP_RANGE,02_A1,57.60,1.6,220.588,3.830,142.315,0.300,0.400,0.000,0.300,General,0.706,220.588
 ElectricEquipment Internal Gains Nominal, 03_A1 ELECTRIC EQUIPMENT 3,APARTMENTMIDRISE EQP_RANGE,03_A1,57.60,1.6,220.588,3.830,142.315,0.300,0.400,0.000,0.300,General,0.706,220.588
 ElectricEquipment Internal Gains Nominal, 01_A2 ELECTRIC EQUIPMENT 13,APARTMENTMIDRISE EQP_RANGE,01_A2,62.25,1.6,176.471,2.835,113.852,0.300,0.400,0.000,0.300,General,0.565,176.471
 ElectricEquipment Internal Gains Nominal, 02_A2 ELECTRIC EQUIPMENT 13,APARTMENTMIDRISE EQP_RANGE,02_A2,62.25,1.6,176.471,2.835,113.852,0.300,0.400,0.000,0.300,General,0.565,176.471
 ElectricEquipment Internal Gains Nominal, 03_A2 ELECTRIC EQUIPMENT 13,APARTMENTMIDRISE EQP_RANGE,03_A2,62.25,1.6,176.471,2.835,113.852,0.300,0.400,0.000,0.300,General,0.565,176.471
 ElectricEquipment Internal Gains Nominal, 01_A2 ELECTRIC EQUIPMENT 27,APARTMENTMIDRISE EQP_CLOTHESDRYER,01_A2,62.25,1.6,1699.556,27.304,1096.487,5.000E-002,0.150,0.000,0.800,General,3.399,1699.556
 ElectricEquipment Internal Gains Nominal, 02_A2 ELECTRIC EQUIPMENT 27,APARTMENTMIDRISE EQP_CLOTHESDRYER,02_A2,62.25,1.6,1699.556,27.304,1096.487,5.000E-002,0.150,0.000,0.800,General,3.399,1699.556
 ElectricEquipment Internal Gains Nominal, 03_A2 ELECTRIC EQUIPMENT 27,APARTMENTMIDRISE EQP_CLOTHESDRYER,03_A2,62.25,1.6,1699.556,27.304,1096.487,5.000E-002,0.150,0.000,0.800,General,3.399,1699.556
 ElectricEquipment Internal Gains Nominal, 01_A2 ELECTRIC EQUIPMENT 28,APARTMENTMIDRISE EQP_CLOTHESWASHER,01_A2,62.25,1.6,350.000,5.623,225.806,0.000,0.800,0.000,0.200,General,1.225,350.000
 ElectricEquipment Internal Gains Nominal, 02_A2 ELECTRIC EQUIPMENT 28,APARTMENTMIDRISE EQP_CLOTHESWASHER,02_A2,62.25,1.6,350.000,5.623,225.806,0.000,0.800,0.000,0.200,General,1.225,350.000
 ElectricEquipment Internal Gains Nominal, 03_A2 ELECTRIC EQUIPMENT 28,APARTMENTMIDRISE EQP_CLOTHESWASHER,03_A2,62.25,1.6,350.000,5.623,225.806,0.000,0.800,0.000,0.200,General,1.225,350.000
 ElectricEquipment Internal Gains Nominal, 01_A2 ELECTRIC EQUIPMENT 30,APARTMENTMIDRISE EQP_DISHWASHER,01_A2,62.25,1.6,780.000,12.531,503.226,0.150,0.600,0.000,0.250,General,2.730,780.000
 ElectricEquipment Internal Gains Nominal, 02_A2 ELECTRIC EQUIPMENT 30,APARTMENTMIDRISE EQP_DISHWASHER,02_A2,62.25,1.6,780.000,12.531,503.226,0.150,0.600,0.000,0.250,General,2.730,780.000
 ElectricEquipment Internal Gains Nominal, 03_A2 ELECTRIC EQUIPMENT 30,APARTMENTMIDRISE EQP_DISHWASHER,03_A2,62.25,1.6,780.000,12.531,503.226,0.150,0.600,0.000,0.250,General,2.730,780.000
 ElectricEquipment Internal Gains Nominal, 01_A2 ELECTRIC EQUIPMENT 31,APARTMENTMIDRISE EQP_RANGE,01_A2,62.25,1.6,250.000,4.016,161.290,0.200,0.730,0.000,7.000E-002,General,0.800,250.000
 ElectricEquipment Internal Gains Nominal, 02_A2 ELECTRIC EQUIPMENT 31,APARTMENTMIDRISE EQP_RANGE,02_A2,62.25,1.6,250.000,4.016,161.290,0.200,0.730,0.000,7.000E-002,General,0.800,250.000
 ElectricEquipment Internal Gains Nominal, 03_A2 ELECTRIC EQUIPMENT 31,APARTMENTMIDRISE EQP_RANGE,03_A2,62.25,1.6,250.000,4.016,161.290,0.200,0.730,0.000,7.000E-002,General,0.800,250.000
 ElectricEquipment Internal Gains Nominal, 01_A2 ELECTRIC EQUIPMENT 32,APARTMENTMIDRISE EQP_RANGE,01_A2,62.25,1.6,220.588,3.544,142.315,0.300,0.400,0.000,0.300,General,0.706,220.588
 ElectricEquipment Internal Gains Nominal, 02_A2 ELECTRIC EQUIPMENT 32,APARTMENTMIDRISE EQP_RANGE,02_A2,62.25,1.6,220.588,3.544,142.315,0.300,0.400,0.000,0.300,General,0.706,220.588
 ElectricEquipment Internal Gains Nominal, 03_A2 ELECTRIC EQUIPMENT 32,APARTMENTMIDRISE EQP_RANGE,03_A2,62.25,1.6,220.588,3.544,142.315,0.300,0.400,0.000,0.300,General,0.706,220.588
 ElectricEquipment Internal Gains Nominal, 01_A2 ELECTRIC EQUIPMENT 33,APARTMENTMIDRISE EQP_REFRIGERATOR,01_A2,62.25,1.6,1200.000,19.279,774.194,0.000,1.000,0.000,0.000,General,43.476,1200.000
 ElectricEquipment Internal Gains Nominal, 02_A2 ELECTRIC EQUIPMENT 33,APARTMENTMIDRISE EQP_REFRIGERATOR,02_A2,62.25,1.6,1200.000,19.279,774.194,0.000,1.000,0.000,0.000,General,43.476,1200.000
 ElectricEquipment Internal Gains Nominal, 03_A2 ELECTRIC EQUIPMENT 33,APARTMENTMIDRISE EQP_REFRIGERATOR,03_A2,62.25,1.6,1200.000,19.279,774.194,0.000,1.000,0.000,0.000,General,43.476,1200.000
 ElectricEquipment Internal Gains Nominal, 01_A2 ELECTRIC EQUIPMENT 34,APARTMENTMIDRISE EQP_APT_SCH,01_A2,62.25,1.6,350.000,5.623,225.806,0.200,0.730,0.000,7.000E-002,General,8.540,350.000
 ElectricEquipment Internal Gains Nominal, 02_A2 ELECTRIC EQUIPMENT 34,APARTMENTMIDRISE EQP_APT_SCH,02_A2,62.25,1.6,350.000,5.623,225.806,0.200,0.730,0.000,7.000E-002,General,8.540,350.000
 ElectricEquipment Internal Gains Nominal, 03_A2 ELECTRIC EQUIPMENT 34,APARTMENTMIDRISE EQP_APT_SCH,03_A2,62.25,1.6,350.000,5.623,225.806,0.200,0.730,0.000,7.000E-002,General,8.540,350.000
 ElectricEquipment Internal Gains Nominal, 01_B2 ELECTRIC EQUIPMENT 45,APARTMENTMIDRISE EQP_RANGE,01_B2,96.77,2.5,397.059,4.103,160.753,0.300,0.400,0.000,0.300,General,1.271,397.059
 ElectricEquipment Internal Gains Nominal, 02_B2 ELECTRIC EQUIPMENT 45,APARTMENTMIDRISE EQP_RANGE,02_B2,96.77,2.5,397.059,4.103,160.753,0.300,0.400,0.000,0.300,General,1.271,397.059
 ElectricEquipment Internal Gains Nominal, 03_B2 ELECTRIC EQUIPMENT 45,APARTMENTMIDRISE EQP_RANGE,03_B2,96.77,2.5,397.059,4.103,160.753,0.300,0.400,0.000,0.300,General,1.271,397.059
 ElectricEquipment Internal Gains Nominal, 01_B2 ELECTRIC EQUIPMENT 60,APARTMENTMIDRISE EQP_CLOTHESDRYER,01_B2,96.77,2.5,1699.556,17.562,688.079,5.000E-002,0.150,0.000,0.800,General,3.399,1699.556
 ElectricEquipment Internal Gains Nominal, 02_B2 ELECTRIC EQUIPMENT 60,APARTMENTMIDRISE EQP_CLOTHESDRYER,02_B2,96.77,2.5,1699.556,17.562,688.079,5.000E-002,0.150,0.000,0.800,General,3.399,1699.556
 ElectricEquipment Internal Gains Nominal, 03_B2 ELECTRIC EQUIPMENT 60,APARTMENTMIDRISE EQP_CLOTHESDRYER,03_B2,96.77,2.5,1699.556,17.562,688.079,5.000E-002,0.150,0.000,0.800,General,3.399,1699.556
 ElectricEquipment Internal Gains Nominal, 01_B2 ELECTRIC EQUIPMENT 61,APARTMENTMIDRISE EQP_CLOTHESWASHER,01_B2,96.77,2.5,350.000,3.617,141.700,0.000,0.800,0.000,0.200,General,1.225,350.000
 ElectricEquipment Internal Gains Nominal, 02_B2 ELECTRIC EQUIPMENT 61,APARTMENTMIDRISE EQP_CLOTHESWASHER,02_B2,96.77,2.5,350.000,3.617,141.700,0.000,0.800,0.000,0.200,General,1.225,350.000
 ElectricEquipment Internal Gains Nominal, 03_B2 ELECTRIC EQUIPMENT 61,APARTMENTMIDRISE EQP_CLOTHESWASHER,03_B2,96.77,2.5,350.000,3.617,141.700,0.000,0.800,0.000,0.200,General,1.225,350.000
 ElectricEquipment Internal Gains Nominal, 01_B2 ELECTRIC EQUIPMENT 63,APARTMENTMIDRISE EQP_DISHWASHER,01_B2,96.77,2.5,780.000,8.060,315.789,0.150,0.600,0.000,0.250,General,2.730,780.000
 ElectricEquipment Internal Gains Nominal, 02_B2 ELECTRIC EQUIPMENT 63,APARTMENTMIDRISE EQP_DISHWASHER,02_B2,96.77,2.5,780.000,8.060,315.789,0.150,0.600,0.000,0.250,General,2.730,780.000
 ElectricEquipment Internal Gains Nominal, 03_B2 ELECTRIC EQUIPMENT 63,APARTMENTMIDRISE EQP_DISHWASHER,03_B2,96.77,2.5,780.000,8.060,315.789,0.150,0.600,0.000,0.250,General,2.730,780.000
 ElectricEquipment Internal Gains Nominal, 01_B2 ELECTRIC EQUIPMENT 64,APARTMENTMIDRISE EQP_RANGE,01_B2,96.77,2.5,250.000,2.583,101.215,0.200,0.730,0.000,7.000E-002,General,0.800,250.000
 ElectricEquipment Internal Gains Nominal, 02_B2 ELECTRIC EQUIPMENT 64,APARTMENTMIDRISE EQP_RANGE,02_B2,96.77,2.5,250.000,2.583,101.215,0.200,0.730,0.000,7.000E-002,General,0.800,250.000
 ElectricEquipment Internal Gains Nominal, 03_B2 ELECTRIC EQUIPMENT 64,APARTMENTMIDRISE EQP_RANGE,03_B2,96.77,2.5,250.000,2.583,101.215,0.200,0.730,0.000,7.000E-002,General,0.800,250.000
 ElectricEquipment Internal Gains Nominal, 01_B2 ELECTRIC EQUIPMENT 65,APARTMENTMIDRISE EQP_RANGE,01_B2,96.77,2.5,220.588,2.279,89.307,0.300,0.400,0.000,0.300,General,0.706,220.588
 ElectricEquipment Internal Gains Nominal, 02_B2 ELECTRIC EQUIPMENT 65,APARTMENTMIDRISE EQP_RANGE,02_B2,96.77,2.5,220.588,2.279,89.307,0.300,0.400,0.000,0.300,General,0.706,220.588
 ElectricEquipment Internal Gains Nominal, 03_B2 ELECTRIC EQUIPMENT 65,APARTMENTMIDRISE EQP_RANGE,03_B2,96.77,2.5,220.588,2.279,89.307,0.300,0.400,0.000,0.300,General,0.706,220.588
 ElectricEquipment Internal Gains Nominal, 01_B2 ELECTRIC EQUIPMENT 66,APARTMENTMIDRISE EQP_RANGE,01_B2,96.77,2.5,176.471,1.824,71.446,0.300,0.400,0.000,0.300,General,0.565,176.471
 ElectricEquipment Internal Gains Nominal, 02_B2 ELECTRIC EQUIPMENT 66,APARTMENTMIDRISE EQP_RANGE,02_B2,96.77,2.5,176.471,1.824,71.446,0.300,0.400,0.000,0.300,General,0.565,176.471
 ElectricEquipment Internal Gains Nominal, 03_B2 ELECTRIC EQUIPMENT 66,APARTMENTMIDRISE EQP_RANGE,03_B2,96.77,2.5,176.471,1.824,71.446,0.300,0.400,0.000,0.300,General,0.565,176.471
 ElectricEquipment Internal Gains Nominal, 01_B2 ELECTRIC EQUIPMENT 67,APARTMENTMIDRISE EQP_REFRIGERATOR,01_B2,96.77,2.5,1200.000,12.400,485.830,0.000,1.000,0.000,0.000,General,43.476,1200.000
 ElectricEquipment Internal Gains Nominal, 02_B2 ELECTRIC EQUIPMENT 67,APARTMENTMIDRISE EQP_REFRIGERATOR,02_B2,96.77,2.5,1200.000,12.400,485.830,0.000,1.000,0.000,0.000,General,43.476,1200.000
 ElectricEquipment Internal Gains Nominal, 03_B2 ELECTRIC EQUIPMENT 67,APARTMENTMIDRISE EQP_REFRIGERATOR,03_B2,96.77,2.5,1200.000,12.400,485.830,0.000,1.000,0.000,0.000,General,43.476,1200.000
 ElectricEquipment Internal Gains Nominal, 01_B2 ELECTRIC EQUIPMENT 68,APARTMENTMIDRISE EQP_APT_SCH,01_B2,96.77,2.5,350.000,3.617,141.700,0.200,0.730,0.000,7.000E-002,General,8.540,350.000
 ElectricEquipment Internal Gains Nominal, 02_B2 ELECTRIC EQUIPMENT 68,APARTMENTMIDRISE EQP_APT_SCH,02_B2,96.77,2.5,350.000,3.617,141.700,0.200,0.730,0.000,7.000E-002,General,8.540,350.000
 ElectricEquipment Internal Gains Nominal, 03_B2 ELECTRIC EQUIPMENT 68,APARTMENTMIDRISE EQP_APT_SCH,03_B2,96.77,2.5,350.000,3.617,141.700,0.200,0.730,0.000,7.000E-002,General,8.540,350.000
 ElectricEquipment Internal Gains Nominal, 01_C1 ELECTRIC EQUIPMENT 1,APARTMENTMIDRISE EQP_CLOTHESDRYER,01_C1,113.62,3.4,1699.556,14.958,501.344,5.000E-002,0.150,0.000,0.800,General,3.399,1699.556
 ElectricEquipment Internal Gains Nominal, 02_C1 ELECTRIC EQUIPMENT 1,APARTMENTMIDRISE EQP_CLOTHESDRYER,02_C1,113.62,3.4,1699.556,14.958,501.344,5.000E-002,0.150,0.000,0.800,General,3.399,1699.556
 ElectricEquipment Internal Gains Nominal, 03_C1 ELECTRIC EQUIPMENT 1,APARTMENTMIDRISE EQP_CLOTHESDRYER,03_C1,113.62,3.4,1699.556,14.958,501.344,5.000E-002,0.150,0.000,0.800,General,3.399,1699.556
 ElectricEquipment Internal Gains Nominal, 01_C1 ELECTRIC EQUIPMENT 10,APARTMENTMIDRISE EQP_RANGE,01_C1,113.62,3.4,397.059,3.495,117.126,0.300,0.400,0.000,0.300,General,1.271,397.059
 ElectricEquipment Internal Gains Nominal, 02_C1 ELECTRIC EQUIPMENT 10,APARTMENTMIDRISE EQP_RANGE,02_C1,113.62,3.4,397.059,3.495,117.126,0.300,0.400,0.000,0.300,General,1.271,397.059
 ElectricEquipment Internal Gains Nominal, 03_C1 ELECTRIC EQUIPMENT 10,APARTMENTMIDRISE EQP_RANGE,03_C1,113.62,3.4,397.059,3.495,117.126,0.300,0.400,0.000,0.300,General,1.271,397.059
 ElectricEquipment Internal Gains Nominal, 01_C1 ELECTRIC EQUIPMENT 2,APARTMENTMIDRISE EQP_CLOTHESWASHER,01_C1,113.62,3.4,350.000,3.080,103.245,0.000,0.800,0.000,0.200,General,1.225,350.000
 ElectricEquipment Internal Gains Nominal, 02_C1 ELECTRIC EQUIPMENT 2,APARTMENTMIDRISE EQP_CLOTHESWASHER,02_C1,113.62,3.4,350.000,3.080,103.245,0.000,0.800,0.000,0.200,General,1.225,350.000
 ElectricEquipment Internal Gains Nominal, 03_C1 ELECTRIC EQUIPMENT 2,APARTMENTMIDRISE EQP_CLOTHESWASHER,03_C1,113.62,3.4,350.000,3.080,103.245,0.000,0.800,0.000,0.200,General,1.225,350.000
 ElectricEquipment Internal Gains Nominal, 01_C1 ELECTRIC EQUIPMENT 4,APARTMENTMIDRISE EQP_DISHWASHER,01_C1,113.62,3.4,780.000,6.865,230.088,0.150,0.600,0.000,0.250,General,2.730,780.000
 ElectricEquipment Internal Gains Nominal, 02_C1 ELECTRIC EQUIPMENT 4,APARTMENTMIDRISE EQP_DISHWASHER,02_C1,113.62,3.4,780.000,6.865,230.088,0.150,0.600,0.000,0.250,General,2.730,780.000
 ElectricEquipment Internal Gains Nominal, 03_C1 ELECTRIC EQUIPMENT 4,APARTMENTMIDRISE EQP_DISHWASHER,03_C1,113.62,3.4,780.000,6.865,230.088,0.150,0.600,0.000,0.250,General,2.730,780.000
 ElectricEquipment Internal Gains Nominal, 01_C1 ELECTRIC EQUIPMENT 5,APARTMENTMIDRISE EQP_RANGE,01_C1,113.62,3.4,220.588,1.941,65.070,0.300,0.400,0.000,0.300,General,0.706,220.588
 ElectricEquipment Internal Gains Nominal, 02_C1 ELECTRIC EQUIPMENT 5,APARTMENTMIDRISE EQP_RANGE,02_C1,113.62,3.4,220.588,1.941,65.070,0.300,0.400,0.000,0.300,General,0.706,220.588
 ElectricEquipment Internal Gains Nominal, 03_C1 ELECTRIC EQUIPMENT 5,APARTMENTMIDRISE EQP_RANGE,03_C1,113.62,3.4,220.588,1.941,65.070,0.300,0.400,0.000,0.300,General,0.706,220.588
 ElectricEquipment Internal Gains Nominal, 01_C1 ELECTRIC EQUIPMENT 53,APARTMENTMIDRISE EQP_RANGE,01_C1,113.62,3.4,220.588,1.941,65.070,0.300,0.400,0.000,0.300,General,0.706,220.588
 ElectricEquipment Internal Gains Nominal, 02_C1 ELECTRIC EQUIPMENT 53,APARTMENTMIDRISE EQP_RANGE,02_C1,113.62,3.4,220.588,1.941,65.070,0.300,0.400,0.000,0.300,General,0.706,220.588
 ElectricEquipment Internal Gains Nominal, 03_C1 ELECTRIC EQUIPMENT 53,APARTMENTMIDRISE EQP_RANGE,03_C1,113.62,3.4,220.588,1.941,65.070,0.300,0.400,0.000,0.300,General,0.706,220.588
 ElectricEquipment Internal Gains Nominal, 01_C1 ELECTRIC EQUIPMENT 6,APARTMENTMIDRISE EQP_RANGE,01_C1,113.62,3.4,250.000,2.200,73.746,0.200,0.730,0.000,7.000E-002,General,0.800,250.000
 ElectricEquipment Internal Gains Nominal, 02_C1 ELECTRIC EQUIPMENT 6,APARTMENTMIDRISE EQP_RANGE,02_C1,113.62,3.4,250.000,2.200,73.746,0.200,0.730,0.000,7.000E-002,General,0.800,250.000
 ElectricEquipment Internal Gains Nominal, 03_C1 ELECTRIC EQUIPMENT 6,APARTMENTMIDRISE EQP_RANGE,03_C1,113.62,3.4,250.000,2.200,73.746,0.200,0.730,0.000,7.000E-002,General,0.800,250.000
 ElectricEquipment Internal Gains Nominal, 01_C1 ELECTRIC EQUIPMENT 7,APARTMENTMIDRISE EQP_RANGE,01_C1,113.62,3.4,176.471,1.553,52.056,0.300,0.400,0.000,0.300,General,0.565,176.471
 ElectricEquipment Internal Gains Nominal, 02_C1 ELECTRIC EQUIPMENT 7,APARTMENTMIDRISE EQP_RANGE,02_C1,113.62,3.4,176.471,1.553,52.056,0.300,0.400,0.000,0.300,General,0.565,176.471
 ElectricEquipment Internal Gains Nominal, 03_C1 ELECTRIC EQUIPMENT 7,APARTMENTMIDRISE EQP_RANGE,03_C1,113.62,3.4,176.471,1.553,52.056,0.300,0.400,0.000,0.300,General,0.565,176.471
 ElectricEquipment Internal Gains Nominal, 01_C1 ELECTRIC EQUIPMENT 8,APARTMENTMIDRISE EQP_REFRIGERATOR,01_C1,113.62,3.4,1200.000,10.561,353.982,0.000,1.000,0.000,0.000,General,43.476,1200.000
 ElectricEquipment Internal Gains Nominal, 02_C1 ELECTRIC EQUIPMENT 8,APARTMENTMIDRISE EQP_REFRIGERATOR,02_C1,113.62,3.4,1200.000,10.561,353.982,0.000,1.000,0.000,0.000,General,43.476,1200.000
 ElectricEquipment Internal Gains Nominal, 03_C1 ELECTRIC EQUIPMENT 8,APARTMENTMIDRISE EQP_REFRIGERATOR,03_C1,113.62,3.4,1200.000,10.561,353.982,0.000,1.000,0.000,0.000,General,43.476,1200.000
 ElectricEquipment Internal Gains Nominal, 01_C1 ELECTRIC EQUIPMENT 9,APARTMENTMIDRISE EQP_APT_SCH,01_C1,113.62,3.4,350.000,3.080,103.245,0.200,0.730,0.000,7.000E-002,General,8.540,350.000
 ElectricEquipment Internal Gains Nominal, 02_C1 ELECTRIC EQUIPMENT 9,APARTMENTMIDRISE EQP_APT_SCH,02_C1,113.62,3.4,350.000,3.080,103.245,0.200,0.730,0.000,7.000E-002,General,8.540,350.000
 ElectricEquipment Internal Gains Nominal, 03_C1 ELECTRIC EQUIPMENT 9,APARTMENTMIDRISE EQP_APT_SCH,03_C1,113.62,3.4,350.000,3.080,103.245,0.200,0.730,0.000,7.000E-002,General,8.540,350.000
! <Shadowing/Sun Position Calculations Annual Simulations>, Calculation Method, Value {days}, Allowable Number Figures in Shadow Overlap {}, Polygon Clipping Algorithm, Sky Diffuse Modeling Algorithm, External Shading Calculation Method, Output External Shading Calculation Results, Disable Self-Shading Within Shading Zone Groups, Disable Self-Shading From Shading Zone Groups to Other Zones
Shadowing/Sun Position Calculations Annual Simulations,AverageOverDaysInFrequency,20,15000,SutherlandHodgman,SimpleSkyDiffuseModeling,InternalCalculation,No,No,No
! <RoomAir Model>, Zone Name, Mixing/Mundt/UCSDDV/UCSDCV/UCSDUFI/UCSDUFE/User Defined
RoomAir Model,01_A1,Mixing/Well-Stirred
RoomAir Model,01_A2,Mixing/Well-Stirred
RoomAir Model,01_B2,Mixing/Well-Stirred
RoomAir Model,01_C1,Mixing/Well-Stirred
RoomAir Model,02_A1,Mixing/Well-Stirred
RoomAir Model,02_A2,Mixing/Well-Stirred
RoomAir Model,02_B2,Mixing/Well-Stirred
RoomAir Model,02_C1,Mixing/Well-Stirred
RoomAir Model,03_A1,Mixing/Well-Stirred
RoomAir Model,03_A2,Mixing/Well-Stirred
RoomAir Model,03_B2,Mixing/Well-Stirred
RoomAir Model,03_C1,Mixing/Well-Stirred
! <AirflowNetwork Model:Control>, No Multizone or Distribution/Multizone with Distribution/Multizone without Distribution/Multizone with Distribution only during Fan Operation
AirflowNetwork Model:Control,NoMultizoneOrDistribution
! <Zone Volume Capacitance Multiplier>, Sensible Heat Capacity Multiplier, Moisture Capacity Multiplier, Carbon Dioxide Capacity Multiplier, Generic Contaminant Capacity Multiplier
Zone Volume Capacitance Multiplier,   1.000 ,   1.000,   1.000,   1.000
! <Zone Sizing DOAS Inputs>, Zone Name, DOAS Design Control Strategy, DOAS Design Low Setpoint Temperature {C}, DOAS Design High Setpoint Temperature {C} 
 Zone Sizing DOAS Inputs, 01_A1, NeutralSupplyAir, 21.100, 23.900
! <Load Timesteps in Zone Design Calculation Averaging Window>, Value
 Load Timesteps in Zone Design Calculation Averaging Window,    6
! <Heating Sizing Factor Information>, Sizing Factor ID, Value
 Heating Sizing Factor Information, Global,   1.2500    
 Heating Sizing Factor Information, Zone 01_A1,   1.2500    
 Heating Sizing Factor Information, Zone 01_A2,   1.2500    
 Heating Sizing Factor Information, Zone 01_B2,   1.2500    
 Heating Sizing Factor Information, Zone 01_C1,   1.2500    
 Heating Sizing Factor Information, Zone 02_A1,   1.2500    
 Heating Sizing Factor Information, Zone 02_A2,   1.2500    
 Heating Sizing Factor Information, Zone 02_B2,   1.2500    
 Heating Sizing Factor Information, Zone 02_C1,   1.2500    
 Heating Sizing Factor Information, Zone 03_A1,   1.2500    
 Heating Sizing Factor Information, Zone 03_A2,   1.2500    
 Heating Sizing Factor Information, Zone 03_B2,   1.2500    
 Heating Sizing Factor Information, Zone 03_C1,   1.2500    
! <Cooling Sizing Factor Information>, Sizing Factor ID, Value
 Cooling Sizing Factor Information, Global,   1.1500    
 Cooling Sizing Factor Information, Zone 01_A1,   1.1500    
 Cooling Sizing Factor Information, Zone 01_A2,   1.1500    
 Cooling Sizing Factor Information, Zone 01_B2,   1.1500    
 Cooling Sizing Factor Information, Zone 01_C1,   1.1500    
 Cooling Sizing Factor Information, Zone 02_A1,   1.1500    
 Cooling Sizing Factor Information, Zone 02_A2,   1.1500    
 Cooling Sizing Factor Information, Zone 02_B2,   1.1500    
 Cooling Sizing Factor Information, Zone 02_C1,   1.1500    
 Cooling Sizing Factor Information, Zone 03_A1,   1.1500    
 Cooling Sizing Factor Information, Zone 03_A2,   1.1500    
 Cooling Sizing Factor Information, Zone 03_B2,   1.1500    
 Cooling Sizing Factor Information, Zone 03_C1,   1.1500    
! <Zone Sizing Information>, Zone Name, Load Type, Calc Des Load {W}, User Des Load {W}, Calc Des Air Flow Rate {m3/s}, User Des Air Flow Rate {m3/s}, Design Day Name, Date/Time of Peak, Temperature at Peak {C}, Humidity Ratio at Peak {kgWater/kgDryAir}, Floor Area {m2}, # Occupants, Calc Outdoor Air Flow Rate {m3/s}, Calc DOAS Heat Addition Rate {W}
 Zone Sizing Information, 01_A1, Cooling, 3066.58693, 3526.57497, 0.18039, 0.20745, ANCHORAGEMERRILLFIELDANNCLG.4CONDNSDBMWB, 7/21 19:00:00, 20.04800, 7.75780E-003, 57.59988, 1.55000, 2.35974E-002, -67.32907
 Zone Sizing Information, 01_A1, Heating, 31.60024, 39.50030, 2.32966E-003, 2.35974E-002, ANCHORAGEMERRILLFIELDANNHTG99.6CONDNSDB, 1/21 01:50:00, -23.90000, 4.35879E-004, 57.59988, 1.55000, 2.35974E-002, -66.43111
 Zone Sizing Information, 01_A2, Cooling, 3282.15642, 3774.47989, 0.19313, 0.22209, ANCHORAGEMERRILLFIELDANNCLG.4CONDNSDBMWB, 7/21 19:00:00, 20.04800, 7.75780E-003, 62.24504, 1.55000, 2.35974E-002, 0.00000
 Zone Sizing Information, 01_A2, Heating, 0.00000, 0.00000, 0.00000, 0.32470, ANCHORAGEMERRILLFIELDANNHTG99.6CONDNSDB, , -23.90000, 4.35879E-004, 62.24504, 1.55000, 2.35974E-002, 0.00000
 Zone Sizing Information, 01_B2, Cooling, 2764.50473, 3179.18044, 0.16265, 0.18705, ANCHORAGEMERRILLFIELDANNCLG.4CONDNSDBMWB, 7/21 19:00:00, 20.04800, 7.75780E-003, 96.77400, 2.47000, 2.35974E-002, 0.00000
 Zone Sizing Information, 01_B2, Heating, 63.18742, 78.98428, 3.72031E-003, 2.35974E-002, ANCHORAGEMERRILLFIELDANNHTG99.6CONDNSDB, 1/21 05:00:00, -23.90000, 4.35879E-004, 96.77400, 2.47000, 2.35974E-002, 0.00000
 Zone Sizing Information, 01_C1, Cooling, 2904.61979, 3340.31276, 0.17089, 0.19653, ANCHORAGEMERRILLFIELDANNCLG.4CONDNSDBMWB, 7/21 19:00:00, 20.04800, 7.75780E-003, 113.62042, 3.39000, 2.35974E-002, 0.00000
 Zone Sizing Information, 01_C1, Heating, 15.37615, 19.22019, 9.05324E-004, 2.35974E-002, ANCHORAGEMERRILLFIELDANNHTG99.6CONDNSDB, 1/21 05:00:00, -23.90000, 4.35879E-004, 113.62042, 3.39000, 2.35974E-002, 0.00000
 Zone Sizing Information, 02_A1, Cooling, 4750.03393, 5462.53902, 0.27949, 0.32141, ANCHORAGEMERRILLFIELDANNCLG.4CONDNSDBMWB, 7/21 19:00:00, 20.04800, 7.75780E-003, 57.59988, 1.55000, 2.35974E-002, 0.00000
 Zone Sizing Information, 02_A1, Heating, 0.00000, 0.00000, 0.00000, 0.32470, ANCHORAGEMERRILLFIELDANNHTG99.6CONDNSDB, , -23.90000, 4.35879E-004, 57.59988, 1.55000, 2.35974E-002, 0.00000
 Zone Sizing Information, 02_A2, Cooling, 4777.25454, 5493.84273, 0.28109, 0.32325, ANCHORAGEMERRILLFIELDANNCLG.4CONDNSDBMWB, 7/21 19:00:00, 20.04800, 7.75780E-003, 62.24504, 1.55000, 2.35974E-002, 0.00000
 Zone Sizing Information, 02_A2, Heating, 0.00000, 0.00000, 0.00000, 0.32470, ANCHORAGEMERRILLFIELDANNHTG99.6CONDNSDB, , -23.90000, 4.35879E-004, 62.24504, 1.55000, 2.35974E-002, 0.00000
 Zone Sizing Information, 02_B2, Cooling, 5019.70599, 5772.66189, 0.29534, 0.33964, ANCHORAGEMERRILLFIELDANNCLG.4CONDNSDBMWB, 7/21 19:00:00, 20.04800, 7.75780E-003, 96.77400, 2.47000, 2.35974E-002, 0.00000
 Zone Sizing Information, 02_B2, Heating, 0.00000, 0.00000, 0.00000, 0.32470, ANCHORAGEMERRILLFIELDANNHTG99.6CONDNSDB, , -23.90000, 4.35879E-004, 96.77400, 2.47000, 2.35974E-002, 0.00000
 Zone Sizing Information, 02_C1, Cooling, 5824.26326, 6697.90275, 0.34267, 0.39407, ANCHORAGEMERRILLFIELDANNCLG.4CONDNSDBMWB, 7/21 18:20:00, 20.72800, 7.75780E-003, 113.62042, 3.39000, 2.35974E-002, 0.00000
 Zone Sizing Information, 02_C1, Heating, 0.00000, 0.00000, 0.00000, 0.32470, ANCHORAGEMERRILLFIELDANNHTG99.6CONDNSDB, , -23.90000, 4.35879E-004, 113.62042, 3.39000, 2.35974E-002, 0.00000
 Zone Sizing Information, 03_A1, Cooling, 4972.60526, 5718.49604, 0.29259, 0.33647, ANCHORAGEMERRILLFIELDANNCLG.4CONDNSDBMWB, 7/21 19:00:00, 20.04800, 7.75780E-003, 57.59988, 1.55000, 2.35974E-002, 0.00000
 Zone Sizing Information, 03_A1, Heating, 0.00000, 0.00000, 0.00000, 0.32470, ANCHORAGEMERRILLFIELDANNHTG99.6CONDNSDB, , -23.90000, 4.35879E-004, 57.59988, 1.55000, 2.35974E-002, 0.00000
 Zone Sizing Information, 03_A2, Cooling, 5116.07096, 5883.48161, 0.30102, 0.34618, ANCHORAGEMERRILLFIELDANNCLG.4CONDNSDBMWB, 7/21 19:00:00, 20.04800, 7.75780E-003, 62.24504, 1.55000, 2.35974E-002, 0.00000
 Zone Sizing Information, 03_A2, Heating, 0.00000, 0.00000, 0.00000, 0.32470, ANCHORAGEMERRILLFIELDANNHTG99.6CONDNSDB, , -23.90000, 4.35879E-004, 62.24504, 1.55000, 2.35974E-002, 0.00000
 Zone Sizing Information, 03_B2, Cooling, 5362.81105, 6167.23271, 0.31553, 0.36286, ANCHORAGEMERRILLFIELDANNCLG.4CONDNSDBMWB, 7/21 19:00:00, 20.04800, 7.75780E-003, 96.77400, 2.47000, 2.35974E-002, 0.00000
 Zone Sizing Information, 03_B2, Heating, 0.00000, 0.00000, 0.00000, 0.32470, ANCHORAGEMERRILLFIELDANNHTG99.6CONDNSDB, , -23.90000, 4.35879E-004, 96.77400, 2.47000, 2.35974E-002, 0.00000
 Zone Sizing Information, 03_C1, Cooling, 6241.62778, 7177.87195, 0.36722, 0.42230, ANCHORAGEMERRILLFIELDANNCLG.4CONDNSDBMWB, 7/21 18:00:00, 21.06800, 7.75780E-003, 113.62042, 3.39000, 2.35974E-002, 0.00000
 Zone Sizing Information, 03_C1, Heating, 0.00000, 0.00000, 0.00000, 0.32470, ANCHORAGEMERRILLFIELDANNHTG99.6CONDNSDB, , -23.90000, 4.35879E-004, 113.62042, 3.39000, 2.35974E-002, 0.00000
! <System Sizing Information>, System Name, Load Type, Peak Load Kind, User Design Capacity, Calc Des Air Flow Rate [m3/s], User Des Air Flow Rate [m3/s], Design Day Name, Date/Time of Peak
 System Sizing Information, AIR LOOP HVAC 1, Cooling, Sensible, 1810.55, 0.20745, 0.20745, ANCHORAGEMERRILLFIELDANNCLG.4CONDNSDBMWB, 7/21 05:00:00
 System Sizing Information, AIR LOOP HVAC 1, Heating, Sensible, 1153.64, 2.35974E-002, 2.35974E-002, ANCHORAGEMERRILLFIELDANNHTG99.6CONDNSDB, 1/21 00:10:00
 System Sizing Information, AIR LOOP HVAC 10, Cooling, Sensible, 3021.31, 0.34618, 0.34618, ANCHORAGEMERRILLFIELDANNCLG.4CONDNSDBMWB, 7/21 05:00:00
 System Sizing Information, AIR LOOP HVAC 10, Heating, Sensible, 15874.03, 0.32470, 0.32470, ANCHORAGEMERRILLFIELDANNHTG99.6CONDNSDB, 1/21 00:10:00
 System Sizing Information, AIR LOOP HVAC 11, Cooling, Sensible, 3166.88, 0.36286, 0.36286, ANCHORAGEMERRILLFIELDANNCLG.4CONDNSDBMWB, 7/21 05:00:00
 System Sizing Information, AIR LOOP HVAC 11, Heating, Sensible, 15874.03, 0.32470, 0.32470, ANCHORAGEMERRILLFIELDANNHTG99.6CONDNSDB, 1/21 00:10:00
 System Sizing Information, AIR LOOP HVAC 12, Cooling, Sensible, 4204.37, 0.42230, 0.42230, ANCHORAGEMERRILLFIELDANNCLG.4CONDNSDBMWB, 7/21 05:00:00
 System Sizing Information, AIR LOOP HVAC 12, Heating, Sensible, 15874.03, 0.32470, 0.32470, ANCHORAGEMERRILLFIELDANNHTG99.6CONDNSDB, 1/21 00:10:00
 System Sizing Information, AIR LOOP HVAC 2, Cooling, Sensible, 1938.37, 0.22209, 0.22209, ANCHORAGEMERRILLFIELDANNCLG.4CONDNSDBMWB, 7/21 05:00:00
 System Sizing Information, AIR LOOP HVAC 2, Heating, Sensible, 15874.03, 0.32470, 0.32470, ANCHORAGEMERRILLFIELDANNHTG99.6CONDNSDB, 1/21 00:10:00
 System Sizing Information, AIR LOOP HVAC 3, Cooling, Sensible, 1632.52, 0.18705, 0.18705, ANCHORAGEMERRILLFIELDANNCLG.4CONDNSDBMWB, 7/21 05:00:00
 System Sizing Information, AIR LOOP HVAC 3, Heating, Sensible, 1153.64, 2.35974E-002, 2.35974E-002, ANCHORAGEMERRILLFIELDANNHTG99.6CONDNSDB, 1/21 00:10:00
 System Sizing Information, AIR LOOP HVAC 4, Cooling, Sensible, 1715.24, 0.19653, 0.19653, ANCHORAGEMERRILLFIELDANNCLG.4CONDNSDBMWB, 7/21 05:00:00
 System Sizing Information, AIR LOOP HVAC 4, Heating, Sensible, 1153.64, 2.35974E-002, 2.35974E-002, ANCHORAGEMERRILLFIELDANNHTG99.6CONDNSDB, 1/21 00:10:00
 System Sizing Information, AIR LOOP HVAC 5, Cooling, Sensible, 2805.20, 0.32141, 0.32141, ANCHORAGEMERRILLFIELDANNCLG.4CONDNSDBMWB, 7/21 05:00:00
 System Sizing Information, AIR LOOP HVAC 5, Heating, Sensible, 15874.03, 0.32470, 0.32470, ANCHORAGEMERRILLFIELDANNHTG99.6CONDNSDB, 1/21 00:10:00
 System Sizing Information, AIR LOOP HVAC 6, Cooling, Sensible, 2821.23, 0.32325, 0.32325, ANCHORAGEMERRILLFIELDANNCLG.4CONDNSDBMWB, 7/21 05:00:00
 System Sizing Information, AIR LOOP HVAC 6, Heating, Sensible, 15874.03, 0.32470, 0.32470, ANCHORAGEMERRILLFIELDANNHTG99.6CONDNSDB, 1/21 00:10:00
 System Sizing Information, AIR LOOP HVAC 7, Cooling, Sensible, 2964.27, 0.33964, 0.33964, ANCHORAGEMERRILLFIELDANNCLG.4CONDNSDBMWB, 7/21 05:00:00
 System Sizing Information, AIR LOOP HVAC 7, Heating, Sensible, 15874.03, 0.32470, 0.32470, ANCHORAGEMERRILLFIELDANNHTG99.6CONDNSDB, 1/21 00:10:00
 System Sizing Information, AIR LOOP HVAC 8, Cooling, Sensible, 3761.96, 0.39407, 0.39407, ANCHORAGEMERRILLFIELDANNCLG.4CONDNSDBMWB, 7/21 05:00:00
 System Sizing Information, AIR LOOP HVAC 8, Heating, Sensible, 15874.03, 0.32470, 0.32470, ANCHORAGEMERRILLFIELDANNHTG99.6CONDNSDB, 1/21 00:10:00
 System Sizing Information, AIR LOOP HVAC 9, Cooling, Sensible, 2936.64, 0.33647, 0.33647, ANCHORAGEMERRILLFIELDANNCLG.4CONDNSDBMWB, 7/21 05:00:00
 System Sizing Information, AIR LOOP HVAC 9, Heating, Sensible, 15874.03, 0.32470, 0.32470, ANCHORAGEMERRILLFIELDANNHTG99.6CONDNSDB, 1/21 00:10:00
! <Component Sizing Information>, Component Type, Component Name, Input Field Description, Value
 Component Sizing Information, AirTerminal:SingleDuct:Uncontrolled, DIFFUSER, Design Size Maximum Air Flow Rate [m3/s], 0.20745
 Component Sizing Information, AirTerminal:SingleDuct:Uncontrolled, DIFFUSER 1, Design Size Maximum Air Flow Rate [m3/s], 0.32470
 Component Sizing Information, AirTerminal:SingleDuct:Uncontrolled, DIFFUSER 2, Design Size Maximum Air Flow Rate [m3/s], 0.18705
 Component Sizing Information, AirTerminal:SingleDuct:Uncontrolled, DIFFUSER 3, Design Size Maximum Air Flow Rate [m3/s], 0.19653
 Component Sizing Information, AirTerminal:SingleDuct:Uncontrolled, DIFFUSER 4, Design Size Maximum Air Flow Rate [m3/s], 0.32470
 Component Sizing Information, AirTerminal:SingleDuct:Uncontrolled, DIFFUSER 5, Design Size Maximum Air Flow Rate [m3/s], 0.32470
 Component Sizing Information, AirTerminal:SingleDuct:Uncontrolled, DIFFUSER 11, Design Size Maximum Air Flow Rate [m3/s], 0.33964
 Component Sizing Information, AirTerminal:SingleDuct:Uncontrolled, DIFFUSER 6, Design Size Maximum Air Flow Rate [m3/s], 0.39407
 Component Sizing Information, AirTerminal:SingleDuct:Uncontrolled, DIFFUSER 7, Design Size Maximum Air Flow Rate [m3/s], 0.33647
 Component Sizing Information, AirTerminal:SingleDuct:Uncontrolled, DIFFUSER 8, Design Size Maximum Air Flow Rate [m3/s], 0.34618
 Component Sizing Information, AirTerminal:SingleDuct:Uncontrolled, DIFFUSER 9, Design Size Maximum Air Flow Rate [m3/s], 0.36286
 Component Sizing Information, AirTerminal:SingleDuct:Uncontrolled, DIFFUSER 10, Design Size Maximum Air Flow Rate [m3/s], 0.42230
 Component Sizing Information, AirLoopHVAC, AIR LOOP HVAC 1, Sum of Air Terminal Maximum Heating Flow Rates [m3/s], 0.20745
 Component Sizing Information, AirLoopHVAC, AIR LOOP HVAC 1, Sum of Air Terminal Minimum Heating Flow Rates [m3/s], 0.20745
 Component Sizing Information, AirLoopHVAC, AIR LOOP HVAC 1, Sum of Air Terminal Maximum Flow Rates [m3/s], 0.20745
 Component Sizing Information, AirLoopHVAC, AIR LOOP HVAC 1, Adjusted Heating Design Air Flow Rate [m3/s], 0.20745
 Component Sizing Information, AirLoopHVAC, AIR LOOP HVAC 1, Adjusted Cooling Design Air Flow Rate [m3/s], 0.20745
 Component Sizing Information, AirLoopHVAC, AIR LOOP HVAC 1, Adjusted Main Design Air Flow Rate [m3/s], 0.20745
 Component Sizing Information, AirLoopHVAC, AIR LOOP HVAC 1, User Heating Air Flow Ratio [], 0.30000
 Component Sizing Information, AirLoopHVAC, AIR LOOP HVAC 1, Calculated Heating Air Flow Ratio [], 1.00000
 Component Sizing Information, AirLoopHVAC, AIR LOOP HVAC 10, Sum of Air Terminal Maximum Heating Flow Rates [m3/s], 0.34618
 Component Sizing Information, AirLoopHVAC, AIR LOOP HVAC 10, Sum of Air Terminal Minimum Heating Flow Rates [m3/s], 0.34618
 Component Sizing Information, AirLoopHVAC, AIR LOOP HVAC 10, Sum of Air Terminal Maximum Flow Rates [m3/s], 0.34618
 Component Sizing Information, AirLoopHVAC, AIR LOOP HVAC 10, Adjusted Heating Design Air Flow Rate [m3/s], 0.34618
 Component Sizing Information, AirLoopHVAC, AIR LOOP HVAC 10, Adjusted Cooling Design Air Flow Rate [m3/s], 0.34618
 Component Sizing Information, AirLoopHVAC, AIR LOOP HVAC 10, Adjusted Main Design Air Flow Rate [m3/s], 0.34618
 Component Sizing Information, AirLoopHVAC, AIR LOOP HVAC 10, User Heating Air Flow Ratio [], 0.30000
 Component Sizing Information, AirLoopHVAC, AIR LOOP HVAC 10, Calculated Heating Air Flow Ratio [], 1.00000
 Component Sizing Information, AirLoopHVAC, AIR LOOP HVAC 11, Sum of Air Terminal Maximum Heating Flow Rates [m3/s], 0.36286
 Component Sizing Information, AirLoopHVAC, AIR LOOP HVAC 11, Sum of Air Terminal Minimum Heating Flow Rates [m3/s], 0.36286
 Component Sizing Information, AirLoopHVAC, AIR LOOP HVAC 11, Sum of Air Terminal Maximum Flow Rates [m3/s], 0.36286
 Component Sizing Information, AirLoopHVAC, AIR LOOP HVAC 11, Adjusted Heating Design Air Flow Rate [m3/s], 0.36286
 Component Sizing Information, AirLoopHVAC, AIR LOOP HVAC 11, Adjusted Cooling Design Air Flow Rate [m3/s], 0.36286
 Component Sizing Information, AirLoopHVAC, AIR LOOP HVAC 11, Adjusted Main Design Air Flow Rate [m3/s], 0.36286
 Component Sizing Information, AirLoopHVAC, AIR LOOP HVAC 11, User Heating Air Flow Ratio [], 0.30000
 Component Sizing Information, AirLoopHVAC, AIR LOOP HVAC 11, Calculated Heating Air Flow Ratio [], 1.00000
 Component Sizing Information, AirLoopHVAC, AIR LOOP HVAC 12, Sum of Air Terminal Maximum Heating Flow Rates [m3/s], 0.42230
 Component Sizing Information, AirLoopHVAC, AIR LOOP HVAC 12, Sum of Air Terminal Minimum Heating Flow Rates [m3/s], 0.42230
 Component Sizing Information, AirLoopHVAC, AIR LOOP HVAC 12, Sum of Air Terminal Maximum Flow Rates [m3/s], 0.42230
 Component Sizing Information, AirLoopHVAC, AIR LOOP HVAC 12, Adjusted Heating Design Air Flow Rate [m3/s], 0.42230
 Component Sizing Information, AirLoopHVAC, AIR LOOP HVAC 12, Adjusted Cooling Design Air Flow Rate [m3/s], 0.42230
 Component Sizing Information, AirLoopHVAC, AIR LOOP HVAC 12, Adjusted Main Design Air Flow Rate [m3/s], 0.42230
 Component Sizing Information, AirLoopHVAC, AIR LOOP HVAC 12, User Heating Air Flow Ratio [], 0.30000
 Component Sizing Information, AirLoopHVAC, AIR LOOP HVAC 12, Calculated Heating Air Flow Ratio [], 1.00000
 Component Sizing Information, AirLoopHVAC, AIR LOOP HVAC 2, Sum of Air Terminal Maximum Heating Flow Rates [m3/s], 0.32470
 Component Sizing Information, AirLoopHVAC, AIR LOOP HVAC 2, Sum of Air Terminal Minimum Heating Flow Rates [m3/s], 0.32470
 Component Sizing Information, AirLoopHVAC, AIR LOOP HVAC 2, Sum of Air Terminal Maximum Flow Rates [m3/s], 0.32470
 Component Sizing Information, AirLoopHVAC, AIR LOOP HVAC 2, Adjusted Heating Design Air Flow Rate [m3/s], 0.32470
 Component Sizing Information, AirLoopHVAC, AIR LOOP HVAC 2, Adjusted Cooling Design Air Flow Rate [m3/s], 0.32470
 Component Sizing Information, AirLoopHVAC, AIR LOOP HVAC 2, Adjusted Main Design Air Flow Rate [m3/s], 0.32470
 Component Sizing Information, AirLoopHVAC, AIR LOOP HVAC 2, User Heating Air Flow Ratio [], 0.30000
 Component Sizing Information, AirLoopHVAC, AIR LOOP HVAC 2, Calculated Heating Air Flow Ratio [], 1.00000
 Component Sizing Information, AirLoopHVAC, AIR LOOP HVAC 3, Sum of Air Terminal Maximum Heating Flow Rates [m3/s], 0.18705
 Component Sizing Information, AirLoopHVAC, AIR LOOP HVAC 3, Sum of Air Terminal Minimum Heating Flow Rates [m3/s], 0.18705
 Component Sizing Information, AirLoopHVAC, AIR LOOP HVAC 3, Sum of Air Terminal Maximum Flow Rates [m3/s], 0.18705
 Component Sizing Information, AirLoopHVAC, AIR LOOP HVAC 3, Adjusted Heating Design Air Flow Rate [m3/s], 0.18705
 Component Sizing Information, AirLoopHVAC, AIR LOOP HVAC 3, Adjusted Cooling Design Air Flow Rate [m3/s], 0.18705
 Component Sizing Information, AirLoopHVAC, AIR LOOP HVAC 3, Adjusted Main Design Air Flow Rate [m3/s], 0.18705
 Component Sizing Information, AirLoopHVAC, AIR LOOP HVAC 3, User Heating Air Flow Ratio [], 0.30000
 Component Sizing Information, AirLoopHVAC, AIR LOOP HVAC 3, Calculated Heating Air Flow Ratio [], 1.00000
 Component Sizing Information, AirLoopHVAC, AIR LOOP HVAC 4, Sum of Air Terminal Maximum Heating Flow Rates [m3/s], 0.19653
 Component Sizing Information, AirLoopHVAC, AIR LOOP HVAC 4, Sum of Air Terminal Minimum Heating Flow Rates [m3/s], 0.19653
 Component Sizing Information, AirLoopHVAC, AIR LOOP HVAC 4, Sum of Air Terminal Maximum Flow Rates [m3/s], 0.19653
 Component Sizing Information, AirLoopHVAC, AIR LOOP HVAC 4, Adjusted Heating Design Air Flow Rate [m3/s], 0.19653
 Component Sizing Information, AirLoopHVAC, AIR LOOP HVAC 4, Adjusted Cooling Design Air Flow Rate [m3/s], 0.19653
 Component Sizing Information, AirLoopHVAC, AIR LOOP HVAC 4, Adjusted Main Design Air Flow Rate [m3/s], 0.19653
 Component Sizing Information, AirLoopHVAC, AIR LOOP HVAC 4, User Heating Air Flow Ratio [], 0.30000
 Component Sizing Information, AirLoopHVAC, AIR LOOP HVAC 4, Calculated Heating Air Flow Ratio [], 1.00000
 Component Sizing Information, AirLoopHVAC, AIR LOOP HVAC 5, Sum of Air Terminal Maximum Heating Flow Rates [m3/s], 0.32470
 Component Sizing Information, AirLoopHVAC, AIR LOOP HVAC 5, Sum of Air Terminal Minimum Heating Flow Rates [m3/s], 0.32470
 Component Sizing Information, AirLoopHVAC, AIR LOOP HVAC 5, Sum of Air Terminal Maximum Flow Rates [m3/s], 0.32470
 Component Sizing Information, AirLoopHVAC, AIR LOOP HVAC 5, Adjusted Heating Design Air Flow Rate [m3/s], 0.32470
 Component Sizing Information, AirLoopHVAC, AIR LOOP HVAC 5, Adjusted Cooling Design Air Flow Rate [m3/s], 0.32470
 Component Sizing Information, AirLoopHVAC, AIR LOOP HVAC 5, Adjusted Main Design Air Flow Rate [m3/s], 0.32470
 Component Sizing Information, AirLoopHVAC, AIR LOOP HVAC 5, User Heating Air Flow Ratio [], 0.30000
 Component Sizing Information, AirLoopHVAC, AIR LOOP HVAC 5, Calculated Heating Air Flow Ratio [], 1.00000
 Component Sizing Information, AirLoopHVAC, AIR LOOP HVAC 6, Sum of Air Terminal Maximum Heating Flow Rates [m3/s], 0.32470
 Component Sizing Information, AirLoopHVAC, AIR LOOP HVAC 6, Sum of Air Terminal Minimum Heating Flow Rates [m3/s], 0.32470
 Component Sizing Information, AirLoopHVAC, AIR LOOP HVAC 6, Sum of Air Terminal Maximum Flow Rates [m3/s], 0.32470
 Component Sizing Information, AirLoopHVAC, AIR LOOP HVAC 6, Adjusted Heating Design Air Flow Rate [m3/s], 0.32470
 Component Sizing Information, AirLoopHVAC, AIR LOOP HVAC 6, Adjusted Cooling Design Air Flow Rate [m3/s], 0.32470
 Component Sizing Information, AirLoopHVAC, AIR LOOP HVAC 6, Adjusted Main Design Air Flow Rate [m3/s], 0.32470
 Component Sizing Information, AirLoopHVAC, AIR LOOP HVAC 6, User Heating Air Flow Ratio [], 0.30000
 Component Sizing Information, AirLoopHVAC, AIR LOOP HVAC 6, Calculated Heating Air Flow Ratio [], 1.00000
 Component Sizing Information, AirLoopHVAC, AIR LOOP HVAC 7, Sum of Air Terminal Maximum Heating Flow Rates [m3/s], 0.33964
 Component Sizing Information, AirLoopHVAC, AIR LOOP HVAC 7, Sum of Air Terminal Minimum Heating Flow Rates [m3/s], 0.33964
 Component Sizing Information, AirLoopHVAC, AIR LOOP HVAC 7, Sum of Air Terminal Maximum Flow Rates [m3/s], 0.33964
 Component Sizing Information, AirLoopHVAC, AIR LOOP HVAC 7, Adjusted Heating Design Air Flow Rate [m3/s], 0.33964
 Component Sizing Information, AirLoopHVAC, AIR LOOP HVAC 7, Adjusted Cooling Design Air Flow Rate [m3/s], 0.33964
 Component Sizing Information, AirLoopHVAC, AIR LOOP HVAC 7, Adjusted Main Design Air Flow Rate [m3/s], 0.33964
 Component Sizing Information, AirLoopHVAC, AIR LOOP HVAC 7, User Heating Air Flow Ratio [], 0.30000
 Component Sizing Information, AirLoopHVAC, AIR LOOP HVAC 7, Calculated Heating Air Flow Ratio [], 1.00000
 Component Sizing Information, AirLoopHVAC, AIR LOOP HVAC 8, Sum of Air Terminal Maximum Heating Flow Rates [m3/s], 0.39407
 Component Sizing Information, AirLoopHVAC, AIR LOOP HVAC 8, Sum of Air Terminal Minimum Heating Flow Rates [m3/s], 0.39407
 Component Sizing Information, AirLoopHVAC, AIR LOOP HVAC 8, Sum of Air Terminal Maximum Flow Rates [m3/s], 0.39407
 Component Sizing Information, AirLoopHVAC, AIR LOOP HVAC 8, Adjusted Heating Design Air Flow Rate [m3/s], 0.39407
 Component Sizing Information, AirLoopHVAC, AIR LOOP HVAC 8, Adjusted Cooling Design Air Flow Rate [m3/s], 0.39407
 Component Sizing Information, AirLoopHVAC, AIR LOOP HVAC 8, Adjusted Main Design Air Flow Rate [m3/s], 0.39407
 Component Sizing Information, AirLoopHVAC, AIR LOOP HVAC 8, User Heating Air Flow Ratio [], 0.30000
 Component Sizing Information, AirLoopHVAC, AIR LOOP HVAC 8, Calculated Heating Air Flow Ratio [], 1.00000
 Component Sizing Information, AirLoopHVAC, AIR LOOP HVAC 9, Sum of Air Terminal Maximum Heating Flow Rates [m3/s], 0.33647
 Component Sizing Information, AirLoopHVAC, AIR LOOP HVAC 9, Sum of Air Terminal Minimum Heating Flow Rates [m3/s], 0.33647
 Component Sizing Information, AirLoopHVAC, AIR LOOP HVAC 9, Sum of Air Terminal Maximum Flow Rates [m3/s], 0.33647
 Component Sizing Information, AirLoopHVAC, AIR LOOP HVAC 9, Adjusted Heating Design Air Flow Rate [m3/s], 0.33647
 Component Sizing Information, AirLoopHVAC, AIR LOOP HVAC 9, Adjusted Cooling Design Air Flow Rate [m3/s], 0.33647
 Component Sizing Information, AirLoopHVAC, AIR LOOP HVAC 9, Adjusted Main Design Air Flow Rate [m3/s], 0.33647
 Component Sizing Information, AirLoopHVAC, AIR LOOP HVAC 9, User Heating Air Flow Ratio [], 0.30000
 Component Sizing Information, AirLoopHVAC, AIR LOOP HVAC 9, Calculated Heating Air Flow Ratio [], 1.00000
 Component Sizing Information, AirLoopHVAC, AIR LOOP HVAC 1, Design Supply Air Flow Rate [m3/s], 0.20745
 Component Sizing Information, AirLoopHVAC, AIR LOOP HVAC 10, Design Supply Air Flow Rate [m3/s], 0.34618
 Component Sizing Information, AirLoopHVAC, AIR LOOP HVAC 11, Design Supply Air Flow Rate [m3/s], 0.36286
 Component Sizing Information, AirLoopHVAC, AIR LOOP HVAC 12, Design Supply Air Flow Rate [m3/s], 0.42230
 Component Sizing Information, AirLoopHVAC, AIR LOOP HVAC 2, Design Supply Air Flow Rate [m3/s], 0.32470
 Component Sizing Information, AirLoopHVAC, AIR LOOP HVAC 3, Design Supply Air Flow Rate [m3/s], 0.18705
 Component Sizing Information, AirLoopHVAC, AIR LOOP HVAC 4, Design Supply Air Flow Rate [m3/s], 0.19653
 Component Sizing Information, AirLoopHVAC, AIR LOOP HVAC 5, Design Supply Air Flow Rate [m3/s], 0.32470
 Component Sizing Information, AirLoopHVAC, AIR LOOP HVAC 6, Design Supply Air Flow Rate [m3/s], 0.32470
 Component Sizing Information, AirLoopHVAC, AIR LOOP HVAC 7, Design Supply Air Flow Rate [m3/s], 0.33964
 Component Sizing Information, AirLoopHVAC, AIR LOOP HVAC 8, Design Supply Air Flow Rate [m3/s], 0.39407
 Component Sizing Information, AirLoopHVAC, AIR LOOP HVAC 9, Design Supply Air Flow Rate [m3/s], 0.33647
!<Controller:MechanicalVentilation>,Name,Availability Schedule Name,Demand Controlled Ventilation {Yes/No},System Outdoor Air Method,Zone Maximum Outdoor Air Fraction,Number of Zones,Zone Name,DSOA Name,DSZAD Name
 Controller:MechanicalVentilation,CONTROLLER MECHANICAL VENTILATION 1,ALWAYS ON DISCRETE HVAC_LIBRARY,No,ZoneSum,1.00,1,01_A1,HVAC_OA,01_A1 DESIGN SPEC ZONE AIR DIST
 Controller:MechanicalVentilation,CONTROLLER MECHANICAL VENTILATION 2,ALWAYS ON DISCRETE HVAC_LIBRARY,No,ZoneSum,1.00,1,01_A2,HVAC_OA,01_A2 DESIGN SPEC ZONE AIR DIST
 Controller:MechanicalVentilation,CONTROLLER MECHANICAL VENTILATION 3,ALWAYS ON DISCRETE HVAC_LIBRARY,No,ZoneSum,1.00,1,01_B2,HVAC_OA,01_B2 DESIGN SPEC ZONE AIR DIST
 Controller:MechanicalVentilation,CONTROLLER MECHANICAL VENTILATION 4,ALWAYS ON DISCRETE HVAC_LIBRARY,No,ZoneSum,1.00,1,01_C1,HVAC_OA,01_C1 DESIGN SPEC ZONE AIR DIST
 Controller:MechanicalVentilation,CONTROLLER MECHANICAL VENTILATION 5,ALWAYS ON DISCRETE HVAC_LIBRARY,No,ZoneSum,1.00,1,02_A1,HVAC_OA,02_A1 DESIGN SPEC ZONE AIR DIST
 Controller:MechanicalVentilation,CONTROLLER MECHANICAL VENTILATION 6,ALWAYS ON DISCRETE HVAC_LIBRARY,No,ZoneSum,1.00,1,02_A2,HVAC_OA,02_A2 DESIGN SPEC ZONE AIR DIST
 Controller:MechanicalVentilation,CONTROLLER MECHANICAL VENTILATION 7,ALWAYS ON DISCRETE HVAC_LIBRARY,No,ZoneSum,1.00,1,02_B2,HVAC_OA,02_B2 DESIGN SPEC ZONE AIR DIST
 Controller:MechanicalVentilation,CONTROLLER MECHANICAL VENTILATION 8,ALWAYS ON DISCRETE HVAC_LIBRARY,No,ZoneSum,1.00,1,02_C1,HVAC_OA,02_C1 DESIGN SPEC ZONE AIR DIST
 Controller:MechanicalVentilation,CONTROLLER MECHANICAL VENTILATION 9,ALWAYS ON DISCRETE HVAC_LIBRARY,No,ZoneSum,1.00,1,03_A1,HVAC_OA,03_A1 DESIGN SPEC ZONE AIR DIST
 Controller:MechanicalVentilation,CONTROLLER MECHANICAL VENTILATION 10,ALWAYS ON DISCRETE HVAC_LIBRARY,No,ZoneSum,1.00,1,03_A2,HVAC_OA,03_A2 DESIGN SPEC ZONE AIR DIST
 Controller:MechanicalVentilation,CONTROLLER MECHANICAL VENTILATION 11,ALWAYS ON DISCRETE HVAC_LIBRARY,No,ZoneSum,1.00,1,03_B2,HVAC_OA,03_B2 DESIGN SPEC ZONE AIR DIST
 Controller:MechanicalVentilation,CONTROLLER MECHANICAL VENTILATION 12,ALWAYS ON DISCRETE HVAC_LIBRARY,No,ZoneSum,1.00,1,03_C1,HVAC_OA,03_C1 DESIGN SPEC ZONE AIR DIST
 Component Sizing Information, Controller:OutdoorAir, OUTDOOR AIR CONTROLLER, Maximum Outdoor Air Flow Rate [m3/s], 0.20745
 Component Sizing Information, Controller:OutdoorAir, OUTDOOR AIR CONTROLLER, Minimum Outdoor Air Flow Rate [m3/s], 2.35974E-002
 Component Sizing Information, AirLoopHVAC:UnitarySystem, UNITARY - DX HEAT PUMP - CYCLING - ELEC REHEAT, Design Size Supply Air Flow Rate [m3/s], 0.20745
 Component Sizing Information, AirLoopHVAC:UnitarySystem, UNITARY - DX HEAT PUMP - CYCLING - ELEC REHEAT, Design Size Heating Supply Air Flow Rate [m3/s], 0.20745
 Component Sizing Information, AirLoopHVAC:UnitarySystem, UNITARY - DX HEAT PUMP - CYCLING - ELEC REHEAT, Design Size Cooling Supply Air Flow Rate [m3/s], 0.20745
 Component Sizing Information, AirLoopHVAC:UnitarySystem, UNITARY - DX HEAT PUMP - CYCLING - ELEC REHEAT, Design Size No Load Supply Air Flow Rate [m3/s], 0.20745
 Component Sizing Information, AirLoopHVAC:UnitarySystem, UNITARY - DX HEAT PUMP - CYCLING - ELEC REHEAT, Design Size Nominal Cooling Capacity [W], 5151.46204
 Component Sizing Information, AirLoopHVAC:UnitarySystem, UNITARY - DX HEAT PUMP - CYCLING - ELEC REHEAT, Design Size Nominal Heating Capacity [W], 5151.46204
 Component Sizing Information, AirLoopHVAC:UnitarySystem, UNITARY - DX HEAT PUMP - CYCLING - ELEC REHEAT, Design Size Maximum Supply Air Temperature [C], 16.70000
 Component Sizing Information, AirLoopHVAC:UnitarySystem, UNITARY - DX HEAT PUMP - CYCLING - ELEC REHEAT, User-Specified Maximum Supply Air Temperature [C], 80.00000
 Component Sizing Information, AirLoopHVAC:UnitarySystem, UNITARY - DX HEAT PUMP - CYCLING - ELEC REHEAT, Design Size Supplemental Heating Coil Nominal Capacity [W], 5151.46204
 Component Sizing Information, AirLoopHVAC:UnitarySystem, UNITARY - DX HEAT PUMP - CYCLING - ELEC REHEAT, User-Specified Supplemental Heating Coil Nominal Capacity [W], 5151.46204
 Component Sizing Information, AirLoopHVAC:UnitarySystem, UNITARY - DX HEAT PUMP - CYCLING - ELEC REHEAT, Fraction of Supply Air Flow That Goes Through the Controlling Zone, 1.00000
 Component Sizing Information, Fan:OnOff, FAN ON OFF 5, Design Size Maximum Flow Rate [m3/s], 0.20745
 Component Sizing Information, Coil:Cooling:DX:SingleSpeed, 1 SPD DX CLG COIL 4, Design Size Rated Air Flow Rate [m3/s], 0.20745
 Component Sizing Information, Coil:Cooling:DX:SingleSpeed, 1 SPD DX CLG COIL 4, Design Size Gross Rated Total Cooling Capacity [W], 5151.46204
 Component Sizing Information, Coil:Cooling:DX:SingleSpeed, 1 SPD DX CLG COIL 4, Design Size Gross Rated Sensible Heat Ratio, 0.69808
! <DX Cooling Coil Standard Rating Information>, Component Type, Component Name, Standard Rating (Net) Cooling Capacity {W}, Standard Rated Net COP {W/W}, EER {Btu/W-h}, SEER {Btu/W-h}, IEER {Btu/W-h}
 DX Cooling Coil Standard Rating Information, Coil:Cooling:DX:SingleSpeed, 1 SPD DX CLG COIL 4, 4987.8, 3.07, 10.47, 10.41, 10.78
 Component Sizing Information, Coil:Heating:DX:SingleSpeed, 1 SPD DX HTG COIL 3, Design Size Rated Air Flow Rate [m3/s], 0.20745
 Component Sizing Information, Coil:Heating:DX:SingleSpeed, 1 SPD DX HTG COIL 3, Design Size Gross Rated Heating Capacity [W], 5151.46204
 Component Sizing Information, Coil:Heating:DX:SingleSpeed, 1 SPD DX HTG COIL 3, Design Size Resistive Defrost Heater Capacity [W], 5151.46204
 Component Sizing Information, Coil:Heating:DX:SingleSpeed, 1 SPD DX HTG COIL 3, User-Specified Resistive Defrost Heater Capacity [W], 2000.00000
! <DX Heating Coil Standard Rating Information>, Component Type, Component Name, High Temperature Heating (net) Rating Capacity {W}, Low Temperature Heating (net) Rating Capacity {W}, HSPF {Btu/W-h}, Region Number
 DX Heating Coil Standard Rating Information, Coil:Heating:DX:SingleSpeed, 1 SPD DX HTG COIL 3, 5318.1, 2926.3, 6.55, 4
 Component Sizing Information, Coil:Heating:Electric, ELEC HTG COIL 5, Design Size Nominal Capacity [W], 5151.46204
 Component Sizing Information, Controller:OutdoorAir, OUTDOOR AIR CONTROLLER 9, Maximum Outdoor Air Flow Rate [m3/s], 0.34618
 Component Sizing Information, Controller:OutdoorAir, OUTDOOR AIR CONTROLLER 9, Minimum Outdoor Air Flow Rate [m3/s], 2.35974E-002
 Component Sizing Information, AirLoopHVAC:UnitarySystem, UNITARY - DX HEAT PUMP - CYCLING - ELEC REHEAT 9, Design Size Supply Air Flow Rate [m3/s], 0.34618
 Component Sizing Information, AirLoopHVAC:UnitarySystem, UNITARY - DX HEAT PUMP - CYCLING - ELEC REHEAT 9, Design Size Heating Supply Air Flow Rate [m3/s], 0.34618
 Component Sizing Information, AirLoopHVAC:UnitarySystem, UNITARY - DX HEAT PUMP - CYCLING - ELEC REHEAT 9, Design Size Cooling Supply Air Flow Rate [m3/s], 0.34618
 Component Sizing Information, AirLoopHVAC:UnitarySystem, UNITARY - DX HEAT PUMP - CYCLING - ELEC REHEAT 9, Design Size No Load Supply Air Flow Rate [m3/s], 0.34618
 Component Sizing Information, AirLoopHVAC:UnitarySystem, UNITARY - DX HEAT PUMP - CYCLING - ELEC REHEAT 9, Design Size Nominal Cooling Capacity [W], 8596.38248
 Component Sizing Information, AirLoopHVAC:UnitarySystem, UNITARY - DX HEAT PUMP - CYCLING - ELEC REHEAT 9, Design Size Nominal Heating Capacity [W], 8596.38248
 Component Sizing Information, AirLoopHVAC:UnitarySystem, UNITARY - DX HEAT PUMP - CYCLING - ELEC REHEAT 9, Design Size Maximum Supply Air Temperature [C], 16.70000
 Component Sizing Information, AirLoopHVAC:UnitarySystem, UNITARY - DX HEAT PUMP - CYCLING - ELEC REHEAT 9, User-Specified Maximum Supply Air Temperature [C], 80.00000
 Component Sizing Information, AirLoopHVAC:UnitarySystem, UNITARY - DX HEAT PUMP - CYCLING - ELEC REHEAT 9, Design Size Supplemental Heating Coil Nominal Capacity [W], 8596.38248
 Component Sizing Information, AirLoopHVAC:UnitarySystem, UNITARY - DX HEAT PUMP - CYCLING - ELEC REHEAT 9, User-Specified Supplemental Heating Coil Nominal Capacity [W], 8596.38248
 Component Sizing Information, AirLoopHVAC:UnitarySystem, UNITARY - DX HEAT PUMP - CYCLING - ELEC REHEAT 9, Fraction of Supply Air Flow That Goes Through the Controlling Zone, 1.00000
 Component Sizing Information, Fan:OnOff, FAN ON OFF 14, Design Size Maximum Flow Rate [m3/s], 0.34618
 Component Sizing Information, Coil:Cooling:DX:SingleSpeed, 1 SPD DX CLG COIL 13, Design Size Rated Air Flow Rate [m3/s], 0.34618
 Component Sizing Information, Coil:Cooling:DX:SingleSpeed, 1 SPD DX CLG COIL 13, Design Size Gross Rated Total Cooling Capacity [W], 8596.38248
 Component Sizing Information, Coil:Cooling:DX:SingleSpeed, 1 SPD DX CLG COIL 13, Design Size Gross Rated Sensible Heat Ratio, 0.69808
 DX Cooling Coil Standard Rating Information, Coil:Cooling:DX:SingleSpeed, 1 SPD DX CLG COIL 13, 8323.3, 3.07, 10.47, 10.41, 10.78
 Component Sizing Information, Coil:Heating:DX:SingleSpeed, 1 SPD DX HTG COIL 12, Design Size Rated Air Flow Rate [m3/s], 0.34618
 Component Sizing Information, Coil:Heating:DX:SingleSpeed, 1 SPD DX HTG COIL 12, Design Size Gross Rated Heating Capacity [W], 8596.38248
 Component Sizing Information, Coil:Heating:DX:SingleSpeed, 1 SPD DX HTG COIL 12, Design Size Resistive Defrost Heater Capacity [W], 8596.38248
 Component Sizing Information, Coil:Heating:DX:SingleSpeed, 1 SPD DX HTG COIL 12, User-Specified Resistive Defrost Heater Capacity [W], 2000.00000
 DX Heating Coil Standard Rating Information, Coil:Heating:DX:SingleSpeed, 1 SPD DX HTG COIL 12, 8874.5, 4883.3, 6.54, 4
 Component Sizing Information, Coil:Heating:Electric, ELEC HTG COIL 14, Design Size Nominal Capacity [W], 8596.38248
 Component Sizing Information, Controller:OutdoorAir, OUTDOOR AIR CONTROLLER 10, Maximum Outdoor Air Flow Rate [m3/s], 0.36286
 Component Sizing Information, Controller:OutdoorAir, OUTDOOR AIR CONTROLLER 10, Minimum Outdoor Air Flow Rate [m3/s], 2.35974E-002
 Component Sizing Information, AirLoopHVAC:UnitarySystem, UNITARY - DX HEAT PUMP - CYCLING - ELEC REHEAT 10, Design Size Supply Air Flow Rate [m3/s], 0.36286
 Component Sizing Information, AirLoopHVAC:UnitarySystem, UNITARY - DX HEAT PUMP - CYCLING - ELEC REHEAT 10, Design Size Heating Supply Air Flow Rate [m3/s], 0.36286
 Component Sizing Information, AirLoopHVAC:UnitarySystem, UNITARY - DX HEAT PUMP - CYCLING - ELEC REHEAT 10, Design Size Cooling Supply Air Flow Rate [m3/s], 0.36286
 Component Sizing Information, AirLoopHVAC:UnitarySystem, UNITARY - DX HEAT PUMP - CYCLING - ELEC REHEAT 10, Design Size No Load Supply Air Flow Rate [m3/s], 0.36286
 Component Sizing Information, AirLoopHVAC:UnitarySystem, UNITARY - DX HEAT PUMP - CYCLING - ELEC REHEAT 10, Design Size Nominal Cooling Capacity [W], 9010.56501
 Component Sizing Information, AirLoopHVAC:UnitarySystem, UNITARY - DX HEAT PUMP - CYCLING - ELEC REHEAT 10, Design Size Nominal Heating Capacity [W], 9010.56501
 Component Sizing Information, AirLoopHVAC:UnitarySystem, UNITARY - DX HEAT PUMP - CYCLING - ELEC REHEAT 10, Design Size Maximum Supply Air Temperature [C], 16.70000
 Component Sizing Information, AirLoopHVAC:UnitarySystem, UNITARY - DX HEAT PUMP - CYCLING - ELEC REHEAT 10, User-Specified Maximum Supply Air Temperature [C], 80.00000
 Component Sizing Information, AirLoopHVAC:UnitarySystem, UNITARY - DX HEAT PUMP - CYCLING - ELEC REHEAT 10, Design Size Supplemental Heating Coil Nominal Capacity [W], 9010.56501
 Component Sizing Information, AirLoopHVAC:UnitarySystem, UNITARY - DX HEAT PUMP - CYCLING - ELEC REHEAT 10, User-Specified Supplemental Heating Coil Nominal Capacity [W], 9010.56501
 Component Sizing Information, AirLoopHVAC:UnitarySystem, UNITARY - DX HEAT PUMP - CYCLING - ELEC REHEAT 10, Fraction of Supply Air Flow That Goes Through the Controlling Zone, 1.00000
 Component Sizing Information, Fan:OnOff, FAN ON OFF 15, Design Size Maximum Flow Rate [m3/s], 0.36286
 Component Sizing Information, Coil:Cooling:DX:SingleSpeed, 1 SPD DX CLG COIL 14, Design Size Rated Air Flow Rate [m3/s], 0.36286
 Component Sizing Information, Coil:Cooling:DX:SingleSpeed, 1 SPD DX CLG COIL 14, Design Size Gross Rated Total Cooling Capacity [W], 9010.56501
 Component Sizing Information, Coil:Cooling:DX:SingleSpeed, 1 SPD DX CLG COIL 14, Design Size Gross Rated Sensible Heat Ratio, 0.69808
 DX Cooling Coil Standard Rating Information, Coil:Cooling:DX:SingleSpeed, 1 SPD DX CLG COIL 14, 8724.3, 3.07, 10.47, 10.41, 10.78
 Component Sizing Information, Coil:Heating:DX:SingleSpeed, 1 SPD DX HTG COIL 13, Design Size Rated Air Flow Rate [m3/s], 0.36286
 Component Sizing Information, Coil:Heating:DX:SingleSpeed, 1 SPD DX HTG COIL 13, Design Size Gross Rated Heating Capacity [W], 9010.56501
 Component Sizing Information, Coil:Heating:DX:SingleSpeed, 1 SPD DX HTG COIL 13, Design Size Resistive Defrost Heater Capacity [W], 9010.56501
 Component Sizing Information, Coil:Heating:DX:SingleSpeed, 1 SPD DX HTG COIL 13, User-Specified Resistive Defrost Heater Capacity [W], 2000.00000
 DX Heating Coil Standard Rating Information, Coil:Heating:DX:SingleSpeed, 1 SPD DX HTG COIL 13, 9302.1, 5118.5, 6.54, 4
 Component Sizing Information, Coil:Heating:Electric, ELEC HTG COIL 15, Design Size Nominal Capacity [W], 9010.56501
 Component Sizing Information, Controller:OutdoorAir, OUTDOOR AIR CONTROLLER 11, Maximum Outdoor Air Flow Rate [m3/s], 0.42230
 Component Sizing Information, Controller:OutdoorAir, OUTDOOR AIR CONTROLLER 11, Minimum Outdoor Air Flow Rate [m3/s], 2.35974E-002
 Component Sizing Information, AirLoopHVAC:UnitarySystem, UNITARY - DX HEAT PUMP - CYCLING - ELEC REHEAT 11, Design Size Supply Air Flow Rate [m3/s], 0.42230
 Component Sizing Information, AirLoopHVAC:UnitarySystem, UNITARY - DX HEAT PUMP - CYCLING - ELEC REHEAT 11, Design Size Heating Supply Air Flow Rate [m3/s], 0.42230
 Component Sizing Information, AirLoopHVAC:UnitarySystem, UNITARY - DX HEAT PUMP - CYCLING - ELEC REHEAT 11, Design Size Cooling Supply Air Flow Rate [m3/s], 0.42230
 Component Sizing Information, AirLoopHVAC:UnitarySystem, UNITARY - DX HEAT PUMP - CYCLING - ELEC REHEAT 11, Design Size No Load Supply Air Flow Rate [m3/s], 0.42230
 Component Sizing Information, AirLoopHVAC:UnitarySystem, UNITARY - DX HEAT PUMP - CYCLING - ELEC REHEAT 11, Design Size Nominal Cooling Capacity [W], 10486.72854
 Component Sizing Information, AirLoopHVAC:UnitarySystem, UNITARY - DX HEAT PUMP - CYCLING - ELEC REHEAT 11, Design Size Nominal Heating Capacity [W], 10486.72854
 Component Sizing Information, AirLoopHVAC:UnitarySystem, UNITARY - DX HEAT PUMP - CYCLING - ELEC REHEAT 11, Design Size Maximum Supply Air Temperature [C], 16.70000
 Component Sizing Information, AirLoopHVAC:UnitarySystem, UNITARY - DX HEAT PUMP - CYCLING - ELEC REHEAT 11, User-Specified Maximum Supply Air Temperature [C], 80.00000
 Component Sizing Information, AirLoopHVAC:UnitarySystem, UNITARY - DX HEAT PUMP - CYCLING - ELEC REHEAT 11, Design Size Supplemental Heating Coil Nominal Capacity [W], 10486.72854
 Component Sizing Information, AirLoopHVAC:UnitarySystem, UNITARY - DX HEAT PUMP - CYCLING - ELEC REHEAT 11, User-Specified Supplemental Heating Coil Nominal Capacity [W], 10486.72854
 Component Sizing Information, AirLoopHVAC:UnitarySystem, UNITARY - DX HEAT PUMP - CYCLING - ELEC REHEAT 11, Fraction of Supply Air Flow That Goes Through the Controlling Zone, 1.00000
 Component Sizing Information, Fan:OnOff, FAN ON OFF 16, Design Size Maximum Flow Rate [m3/s], 0.42230
 Component Sizing Information, Coil:Cooling:DX:SingleSpeed, 1 SPD DX CLG COIL 15, Design Size Rated Air Flow Rate [m3/s], 0.42230
 Component Sizing Information, Coil:Cooling:DX:SingleSpeed, 1 SPD DX CLG COIL 15, Design Size Gross Rated Total Cooling Capacity [W], 10486.72854
 Component Sizing Information, Coil:Cooling:DX:SingleSpeed, 1 SPD DX CLG COIL 15, Design Size Gross Rated Sensible Heat Ratio, 0.69808
 DX Cooling Coil Standard Rating Information, Coil:Cooling:DX:SingleSpeed, 1 SPD DX CLG COIL 15, 10153.6, 3.07, 10.47, 10.41, 10.78
 Component Sizing Information, Coil:Heating:DX:SingleSpeed, 1 SPD DX HTG COIL 14, Design Size Rated Air Flow Rate [m3/s], 0.42230
 Component Sizing Information, Coil:Heating:DX:SingleSpeed, 1 SPD DX HTG COIL 14, Design Size Gross Rated Heating Capacity [W], 10486.72854
 Component Sizing Information, Coil:Heating:DX:SingleSpeed, 1 SPD DX HTG COIL 14, Design Size Resistive Defrost Heater Capacity [W], 10486.72854
 Component Sizing Information, Coil:Heating:DX:SingleSpeed, 1 SPD DX HTG COIL 14, User-Specified Resistive Defrost Heater Capacity [W], 2000.00000
 DX Heating Coil Standard Rating Information, Coil:Heating:DX:SingleSpeed, 1 SPD DX HTG COIL 14, 10826.0, 5957.1, 6.54, 4
 Component Sizing Information, Coil:Heating:Electric, ELEC HTG COIL 16, Design Size Nominal Capacity [W], 10486.72854
 Component Sizing Information, Controller:OutdoorAir, OUTDOOR AIR CONTROLLER 1, Maximum Outdoor Air Flow Rate [m3/s], 0.32470
 Component Sizing Information, Controller:OutdoorAir, OUTDOOR AIR CONTROLLER 1, Minimum Outdoor Air Flow Rate [m3/s], 2.35974E-002
 Component Sizing Information, AirLoopHVAC:UnitarySystem, UNITARY - DX HEAT PUMP - CYCLING - ELEC REHEAT 1, Design Size Supply Air Flow Rate [m3/s], 0.32470
 Component Sizing Information, AirLoopHVAC:UnitarySystem, UNITARY - DX HEAT PUMP - CYCLING - ELEC REHEAT 1, Design Size Heating Supply Air Flow Rate [m3/s], 0.32470
 Component Sizing Information, AirLoopHVAC:UnitarySystem, UNITARY - DX HEAT PUMP - CYCLING - ELEC REHEAT 1, Design Size Cooling Supply Air Flow Rate [m3/s], 0.32470
[...]
 Warmup Convergence Information,01_B2,SizingPeriod: ANCHORAGEMERRILLFIELDANNCLG.4CONDNSDBMWB,8.1274658457E-003,2.3578021571E-002,Pass,Pass,5.8874906306E-002,0.1962865519,Pass,Pass
 Warmup Convergence Information,01_C1,SizingPeriod: ANCHORAGEMERRILLFIELDANNCLG.4CONDNSDBMWB,1.0008957067E-002,2.3385952537E-002,Pass,Pass,7.2743603159E-002,0.3677840135,Pass,Pass
 Warmup Convergence Information,02_A1,SizingPeriod: ANCHORAGEMERRILLFIELDANNCLG.4CONDNSDBMWB,3.1953999842E-005,6.1107801953E-005,Pass,Pass,1.6618944294E-002,2.9089227823E-002,Pass,Pass
 Warmup Convergence Information,02_A2,SizingPeriod: ANCHORAGEMERRILLFIELDANNCLG.4CONDNSDBMWB,4.4754116467E-005,8.3680275824E-005,Pass,Pass,1.5338774197E-002,2.8831137363E-002,Pass,Pass
 Warmup Convergence Information,02_B2,SizingPeriod: ANCHORAGEMERRILLFIELDANNCLG.4CONDNSDBMWB,3.3188825854E-005,6.0024552590E-005,Pass,Pass,1.8606346474E-002,3.1456435485E-002,Pass,Pass
 Warmup Convergence Information,02_C1,SizingPeriod: ANCHORAGEMERRILLFIELDANNCLG.4CONDNSDBMWB,2.8877755988E-005,4.9472995269E-005,Pass,Pass,1.9097029361E-002,2.8119929644E-002,Pass,Pass
 Warmup Convergence Information,03_A1,SizingPeriod: ANCHORAGEMERRILLFIELDANNCLG.4CONDNSDBMWB,3.0586782078E-005,6.0416501108E-005,Pass,Pass,1.8272990725E-002,3.2665218238E-002,Pass,Pass
 Warmup Convergence Information,03_A2,SizingPeriod: ANCHORAGEMERRILLFIELDANNCLG.4CONDNSDBMWB,2.8746971820E-005,6.1607090137E-005,Pass,Pass,1.6521432246E-002,3.3018243979E-002,Pass,Pass
 Warmup Convergence Information,03_B2,SizingPeriod: ANCHORAGEMERRILLFIELDANNCLG.4CONDNSDBMWB,3.1844702705E-005,5.8505084908E-005,Pass,Pass,2.0390564302E-002,3.4946030923E-002,Pass,Pass
 Warmup Convergence Information,03_C1,SizingPeriod: ANCHORAGEMERRILLFIELDANNCLG.4CONDNSDBMWB,2.8439300512E-005,4.7863590088E-005,Pass,Pass,2.1225994058E-002,3.1463054807E-002,Pass,Pass
Environment,ANCHORAGEMERRILLFIELDANNCLG.4CONDNSDPMDB,SizingPeriod:DesignDay,07/21,07/21,SummerDesignDay,1,N/A,N/A,N/A,N/A,N/A,N/A
Environment:Daylight Saving,No,SizingPeriod:DesignDay
Environment:Design Day Data,17.20,6.80,DefaultMultipliers,100821,270,2.8,0.00,No,No
Environment:Design Day Misc,202,1084.4,0.2082,0.1365,1.0,-6.23,20.6,ASHRAETau
Environment:WarmupDays,  6
 Warmup Convergence Information,01_A1,SizingPeriod: ANCHORAGEMERRILLFIELDANNCLG.4CONDNSDPMDB,5.5495980259E-005,1.2343076577E-004,Pass,Pass,3.7487344633E-002,7.6548488134E-002,Pass,Pass
 Warmup Convergence Information,01_A2,SizingPeriod: ANCHORAGEMERRILLFIELDANNCLG.4CONDNSDPMDB,4.6125852362E-005,9.7058685126E-005,Pass,Pass,2.6183290392E-002,5.6533682378E-002,Pass,Pass
 Warmup Convergence Information,01_B2,SizingPeriod: ANCHORAGEMERRILLFIELDANNCLG.4CONDNSDPMDB,1.7113197667E-002,3.9885927366E-002,Pass,Pass,4.5589706008E-002,0.1386718889,Pass,Pass
 Warmup Convergence Information,01_C1,SizingPeriod: ANCHORAGEMERRILLFIELDANNCLG.4CONDNSDPMDB,1.7792703186E-002,3.7941707411E-002,Pass,Pass,4.5557156592E-002,0.1285530592,Pass,Pass
 Warmup Convergence Information,02_A1,SizingPeriod: ANCHORAGEMERRILLFIELDANNCLG.4CONDNSDPMDB,3.3732324120E-005,6.9565814947E-005,Pass,Pass,1.7367529012E-002,3.0434008385E-002,Pass,Pass
 Warmup Convergence Information,02_A2,SizingPeriod: ANCHORAGEMERRILLFIELDANNCLG.4CONDNSDPMDB,4.7156885796E-005,9.4648838430E-005,Pass,Pass,1.6163972507E-002,3.0344128176E-002,Pass,Pass
 Warmup Convergence Information,02_B2,SizingPeriod: ANCHORAGEMERRILLFIELDANNCLG.4CONDNSDPMDB,3.4043702799E-005,6.6560213003E-005,Pass,Pass,2.0169999375E-002,3.3974919387E-002,Pass,Pass
 Warmup Convergence Information,02_C1,SizingPeriod: ANCHORAGEMERRILLFIELDANNCLG.4CONDNSDPMDB,2.9682120726E-005,5.3700901857E-005,Pass,Pass,2.0619216776E-002,3.0361931018E-002,Pass,Pass
 Warmup Convergence Information,03_A1,SizingPeriod: ANCHORAGEMERRILLFIELDANNCLG.4CONDNSDPMDB,3.2915010464E-005,6.8545667788E-005,Pass,Pass,1.9306148189E-002,3.4628144780E-002,Pass,Pass
 Warmup Convergence Information,03_A2,SizingPeriod: ANCHORAGEMERRILLFIELDANNCLG.4CONDNSDPMDB,3.0673043587E-005,6.9499961268E-005,Pass,Pass,1.7779871852E-002,3.5484230115E-002,Pass,Pass
 Warmup Convergence Information,03_B2,SizingPeriod: ANCHORAGEMERRILLFIELDANNCLG.4CONDNSDPMDB,3.3167862572E-005,6.4720487798E-005,Pass,Pass,2.2407661956E-002,3.8551650068E-002,Pass,Pass
 Warmup Convergence Information,03_C1,SizingPeriod: ANCHORAGEMERRILLFIELDANNCLG.4CONDNSDPMDB,2.9273142803E-005,5.1884611988E-005,Pass,Pass,2.3223884136E-002,3.4722743391E-002,Pass,Pass
Environment,ANCHORAGEMERRILLFIELDANNCLG.4CONDNSENTHMDB,SizingPeriod:DesignDay,07/21,07/21,SummerDesignDay,1,N/A,N/A,N/A,N/A,N/A,N/A
Environment:Daylight Saving,No,SizingPeriod:DesignDay
Environment:Design Day Data,21.30,6.80,DefaultMultipliers,100821,270,2.8,0.00,No,No
Environment:Design Day Misc,202,1084.4,0.2082,0.1365,1.0,-6.23,20.6,ASHRAETau
Environment:WarmupDays,  6
 Warmup Convergence Information,01_A1,SizingPeriod: ANCHORAGEMERRILLFIELDANNCLG.4CONDNSENTHMDB,6.8078108552E-005,1.5519492427E-004,Pass,Pass,3.4071376285E-002,6.9469302255E-002,Pass,Pass
 Warmup Convergence Information,01_A2,SizingPeriod: ANCHORAGEMERRILLFIELDANNCLG.4CONDNSENTHMDB,5.6941233295E-005,1.2221107827E-004,Pass,Pass,2.4788452231E-002,5.3775935455E-002,Pass,Pass
 Warmup Convergence Information,01_B2,SizingPeriod: ANCHORAGEMERRILLFIELDANNCLG.4CONDNSENTHMDB,1.0309993391E-002,2.8342989560E-002,Pass,Pass,5.7928541473E-002,0.2267783501,Pass,Pass
 Warmup Convergence Information,01_C1,SizingPeriod: ANCHORAGEMERRILLFIELDANNCLG.4CONDNSENTHMDB,1.1915425386E-002,2.6284582031E-002,Pass,Pass,6.1841766892E-002,0.2872896691,Pass,Pass
 Warmup Convergence Information,02_A1,SizingPeriod: ANCHORAGEMERRILLFIELDANNCLG.4CONDNSENTHMDB,3.9415976724E-005,8.7438377972E-005,Pass,Pass,1.6794310535E-002,2.9397061289E-002,Pass,Pass
 Warmup Convergence Information,02_A2,SizingPeriod: ANCHORAGEMERRILLFIELDANNCLG.4CONDNSENTHMDB,5.6096121731E-005,1.1917649215E-004,Pass,Pass,1.5528899273E-002,2.9179223852E-002,Pass,Pass
 Warmup Convergence Information,02_B2,SizingPeriod: ANCHORAGEMERRILLFIELDANNCLG.4CONDNSENTHMDB,4.0199828476E-005,8.0763420564E-005,Pass,Pass,1.8939584296E-002,3.2006531789E-002,Pass,Pass
 Warmup Convergence Information,02_C1,SizingPeriod: ANCHORAGEMERRILLFIELDANNCLG.4CONDNSENTHMDB,3.2847670151E-005,6.4383340841E-005,Pass,Pass,1.9437947465E-002,2.8607911044E-002,Pass,Pass
 Warmup Convergence Information,03_A1,SizingPeriod: ANCHORAGEMERRILLFIELDANNCLG.4CONDNSENTHMDB,3.8957915102E-005,8.6372945554E-005,Pass,Pass,1.8504046214E-002,3.3087978641E-002,Pass,Pass
 Warmup Convergence Information,03_A2,SizingPeriod: ANCHORAGEMERRILLFIELDANNCLG.4CONDNSENTHMDB,3.7509488755E-005,8.7834259600E-005,Pass,Pass,1.6799785830E-002,3.3548727653E-002,Pass,Pass
 Warmup Convergence Information,03_B2,SizingPeriod: ANCHORAGEMERRILLFIELDANNCLG.4CONDNSENTHMDB,3.9603522211E-005,7.8385386469E-005,Pass,Pass,2.0809964592E-002,3.5680967971E-002,Pass,Pass
 Warmup Convergence Information,03_C1,SizingPeriod: ANCHORAGEMERRILLFIELDANNCLG.4CONDNSENTHMDB,3.2977261647E-005,6.1889045437E-005,Pass,Pass,2.1651322011E-002,3.2121653982E-002,Pass,Pass
Environment,ANCHORAGEMERRILLFIELDANNCLG.4CONDNSWBMDB,SizingPeriod:DesignDay,07/21,07/21,SummerDesignDay,1,N/A,N/A,N/A,N/A,N/A,N/A
Environment:Daylight Saving,No,SizingPeriod:DesignDay
Environment:Design Day Data,21.30,6.80,DefaultMultipliers,100821,270,2.8,0.00,No,No
Environment:Design Day Misc,202,1084.4,0.2082,0.1365,1.0,-6.23,20.6,ASHRAETau
Environment:WarmupDays,  6
 Warmup Convergence Information,01_A1,SizingPeriod: ANCHORAGEMERRILLFIELDANNCLG.4CONDNSWBMDB,5.3571168901E-005,1.2002377488E-004,Pass,Pass,3.4093107937E-002,6.9547069366E-002,Pass,Pass
 Warmup Convergence Information,01_A2,SizingPeriod: ANCHORAGEMERRILLFIELDANNCLG.4CONDNSWBMDB,4.4749272784E-005,9.3370822429E-005,Pass,Pass,2.4794075193E-002,5.3801888558E-002,Pass,Pass
 Warmup Convergence Information,01_B2,SizingPeriod: ANCHORAGEMERRILLFIELDANNCLG.4CONDNSWBMDB,1.0322594884E-002,2.8409957991E-002,Pass,Pass,5.8181660202E-002,0.2292569696,Pass,Pass
 Warmup Convergence Information,01_C1,SizingPeriod: ANCHORAGEMERRILLFIELDANNCLG.4CONDNSWBMDB,1.1931429885E-002,2.6351586196E-002,Pass,Pass,6.1974518521E-002,0.2879782097,Pass,Pass
 Warmup Convergence Information,02_A1,SizingPeriod: ANCHORAGEMERRILLFIELDANNCLG.4CONDNSWBMDB,3.3383058847E-005,6.8750856764E-005,Pass,Pass,1.6792511663E-002,2.9407394207E-002,Pass,Pass
 Warmup Convergence Information,02_A2,SizingPeriod: ANCHORAGEMERRILLFIELDANNCLG.4CONDNSWBMDB,4.6981094431E-005,9.3414734030E-005,Pass,Pass,1.5529706450E-002,2.9191936831E-002,Pass,Pass
 Warmup Convergence Information,02_B2,SizingPeriod: ANCHORAGEMERRILLFIELDANNCLG.4CONDNSWBMDB,3.5156387058E-005,6.6446548675E-005,Pass,Pass,1.8953846227E-002,3.2030396098E-002,Pass,Pass
 Warmup Convergence Information,02_C1,SizingPeriod: ANCHORAGEMERRILLFIELDANNCLG.4CONDNSWBMDB,3.0052354308E-005,5.4018493549E-005,Pass,Pass,1.9440959517E-002,2.8631845934E-002,Pass,Pass
 Warmup Convergence Information,03_A1,SizingPeriod: ANCHORAGEMERRILLFIELDANNCLG.4CONDNSWBMDB,3.2499739608E-005,6.7845172202E-005,Pass,Pass,1.8504174735E-002,3.3111785442E-002,Pass,Pass
 Warmup Convergence Information,03_A2,SizingPeriod: ANCHORAGEMERRILLFIELDANNCLG.4CONDNSWBMDB,3.0661782121E-005,6.8827602332E-005,Pass,Pass,1.6802257871E-002,3.3578128729E-002,Pass,Pass
 Warmup Convergence Information,03_B2,SizingPeriod: ANCHORAGEMERRILLFIELDANNCLG.4CONDNSWBMDB,3.4115636921E-005,6.4760373911E-005,Pass,Pass,2.0828290819E-002,3.5735761349E-002,Pass,Pass
 Warmup Convergence Information,03_C1,SizingPeriod: ANCHORAGEMERRILLFIELDANNCLG.4CONDNSWBMDB,2.9881048044E-005,5.2303739652E-005,Pass,Pass,2.1658683563E-002,3.2173885404E-002,Pass,Pass
Environment,ANCHORAGEMERRILLFIELDANNHTG99.6CONDNSDB,SizingPeriod:DesignDay,01/21,01/21,WinterDesignDay,1,N/A,N/A,N/A,N/A,N/A,N/A
Environment:Daylight Saving,No,SizingPeriod:DesignDay
Environment:Design Day Data,-23.90,0.00,DefaultMultipliers,100821,100,0.7,0.00,No,No
Environment:Design Day Misc, 21,1229.0,0.1415,5.7310E-002,1.0,-11.15,-20.1,ASHRAEClearSky
Environment:WarmupDays,  6
 Warmup Convergence Information,01_A1,SizingPeriod: ANCHORAGEMERRILLFIELDANNHTG99.6CONDNSDB,7.1117491165E-002,8.0422385213E-002,Pass,Pass,1.0170785384E-002,3.1117332048E-002,Pass,Pass
 Warmup Convergence Information,01_A2,SizingPeriod: ANCHORAGEMERRILLFIELDANNHTG99.6CONDNSDB,9.3790189120E-002,0.1084726801,Pass,Pass,1.3896571607E-002,2.9178948538E-002,Pass,Pass
 Warmup Convergence Information,01_B2,SizingPeriod: ANCHORAGEMERRILLFIELDANNHTG99.6CONDNSDB,6.4472514145E-002,6.7105915625E-002,Pass,Pass,3.5484764081E-003,6.4105240863E-003,Pass,Pass
 Warmup Convergence Information,01_C1,SizingPeriod: ANCHORAGEMERRILLFIELDANNHTG99.6CONDNSDB,5.8382313333E-002,5.9974753560E-002,Pass,Pass,3.3984477092E-003,6.0241277439E-003,Pass,Pass
 Warmup Convergence Information,02_A1,SizingPeriod: ANCHORAGEMERRILLFIELDANNHTG99.6CONDNSDB,1.9096707740E-002,3.1230441332E-002,Pass,Pass,1.7144526831E-002,4.5847644230E-002,Pass,Pass
 Warmup Convergence Information,02_A2,SizingPeriod: ANCHORAGEMERRILLFIELDANNHTG99.6CONDNSDB,4.4421487953E-002,5.6331986846E-002,Pass,Pass,1.5319357472E-002,4.1434857681E-002,Pass,Pass
 Warmup Convergence Information,02_B2,SizingPeriod: ANCHORAGEMERRILLFIELDANNHTG99.6CONDNSDB,5.2901533990E-002,5.2705438397E-002,Pass,Pass,6.5384016804E-003,1.4123029184E-002,Pass,Pass
 Warmup Convergence Information,02_C1,SizingPeriod: ANCHORAGEMERRILLFIELDANNHTG99.6CONDNSDB,4.2410209172E-002,4.6653441957E-002,Pass,Pass,1.1114167367E-002,3.1437996069E-002,Pass,Pass
 Warmup Convergence Information,03_A1,SizingPeriod: ANCHORAGEMERRILLFIELDANNHTG99.6CONDNSDB,3.3858079317E-002,4.0386714843E-002,Pass,Pass,1.6340765895E-002,4.8713752940E-002,Pass,Pass
 Warmup Convergence Information,03_A2,SizingPeriod: ANCHORAGEMERRILLFIELDANNHTG99.6CONDNSDB,4.7319270302E-002,5.1829704408E-002,Pass,Pass,1.4431921757E-002,5.3497429221E-002,Pass,Pass
 Warmup Convergence Information,03_B2,SizingPeriod: ANCHORAGEMERRILLFIELDANNHTG99.6CONDNSDB,6.2386216127E-002,6.1519754554E-002,Pass,Pass,6.3585048080E-003,1.1085253476E-002,Pass,Pass
 Warmup Convergence Information,03_C1,SizingPeriod: ANCHORAGEMERRILLFIELDANNHTG99.6CONDNSDB,5.5308281663E-002,5.3964587873E-002,Pass,Pass,6.6704542584E-003,1.1508097329E-002,Pass,Pass
Environment,ANCHORAGEMERRILLFIELDANNHTGWIND99.6CONDNSWSMCDB,SizingPeriod:DesignDay,01/21,01/21,WinterDesignDay,1,N/A,N/A,N/A,N/A,N/A,N/A
Environment:Daylight Saving,No,SizingPeriod:DesignDay
Environment:Design Day Data,-7.50,0.00,DefaultMultipliers,100821,100,8.1,0.00,No,No
Environment:Design Day Misc, 21,1229.0,0.1415,5.7310E-002,1.0,-11.15,-20.1,ASHRAEClearSky
Environment:WarmupDays,  6
 Warmup Convergence Information,01_A1,SizingPeriod: ANCHORAGEMERRILLFIELDANNHTGWIND99.6CONDNSWSMCDB,3.3674468432E-002,5.1631713728E-002,Pass,Pass,2.1049970462E-002,6.5212003257E-002,Pass,Pass
 Warmup Convergence Information,01_A2,SizingPeriod: ANCHORAGEMERRILLFIELDANNHTGWIND99.6CONDNSWSMCDB,3.6036354597E-002,6.6374076775E-002,Pass,Pass,2.2425477887E-002,5.6773805054E-002,Pass,Pass
 Warmup Convergence Information,01_B2,SizingPeriod: ANCHORAGEMERRILLFIELDANNHTGWIND99.6CONDNSWSMCDB,4.1644116018E-002,6.6423527527E-002,Pass,Pass,2.9177495036E-002,7.0757874360E-002,Pass,Pass
 Warmup Convergence Information,01_C1,SizingPeriod: ANCHORAGEMERRILLFIELDANNHTGWIND99.6CONDNSWSMCDB,4.1322498975E-002,6.0900460328E-002,Pass,Pass,2.6257367782E-002,6.5527715550E-002,Pass,Pass
 Warmup Convergence Information,02_A1,SizingPeriod: ANCHORAGEMERRILLFIELDANNHTGWIND99.6CONDNSWSMCDB,2.0769455003E-005,4.1800729375E-005,Pass,Pass,1.8247161506E-002,4.2505185449E-002,Pass,Pass
 Warmup Convergence Information,02_A2,SizingPeriod: ANCHORAGEMERRILLFIELDANNHTGWIND99.6CONDNSWSMCDB,3.1932459672E-005,6.8311268207E-005,Pass,Pass,1.8848030921E-002,4.2862389444E-002,Pass,Pass
 Warmup Convergence Information,02_B2,SizingPeriod: ANCHORAGEMERRILLFIELDANNHTGWIND99.6CONDNSWSMCDB,3.0354305141E-003,8.6824333760E-003,Pass,Pass,2.4268326957E-002,5.8714987677E-002,Pass,Pass
 Warmup Convergence Information,02_C1,SizingPeriod: ANCHORAGEMERRILLFIELDANNHTGWIND99.6CONDNSWSMCDB,9.9910771354E-004,4.6144284328E-003,Pass,Pass,2.5319813429E-002,5.8731367111E-002,Pass,Pass
 Warmup Convergence Information,03_A1,SizingPeriod: ANCHORAGEMERRILLFIELDANNHTGWIND99.6CONDNSWSMCDB,1.9172605077E-005,4.0196646585E-005,Pass,Pass,2.0227106144E-002,5.1116590934E-002,Pass,Pass
 Warmup Convergence Information,03_A2,SizingPeriod: ANCHORAGEMERRILLFIELDANNHTGWIND99.6CONDNSWSMCDB,1.7211983085E-005,3.7596234842E-005,Pass,Pass,2.2347809133E-002,5.8086374390E-002,Pass,Pass
 Warmup Convergence Information,03_B2,SizingPeriod: ANCHORAGEMERRILLFIELDANNHTGWIND99.6CONDNSWSMCDB,7.8964737157E-003,1.9158202397E-002,Pass,Pass,2.4838262726E-002,7.1565708041E-002,Pass,Pass
 Warmup Convergence Information,03_C1,SizingPeriod: ANCHORAGEMERRILLFIELDANNHTGWIND99.6CONDNSWSMCDB,5.0523863570E-003,1.3484981654E-002,Pass,Pass,2.6055236270E-002,7.0223180659E-002,Pass,Pass
Environment,ANCHORAGEMERRILLFIELDANNHUM_N99.6CONDNSDPMCDB,SizingPeriod:DesignDay,01/21,01/21,WinterDesignDay,1,N/A,N/A,N/A,N/A,N/A,N/A
Environment:Daylight Saving,No,SizingPeriod:DesignDay
Environment:Design Day Data,-22.30,0.00,DefaultMultipliers,100821,100,0.7,0.00,No,No
Environment:Design Day Misc, 21,1229.0,0.1415,5.7310E-002,1.0,-11.15,-20.1,ASHRAEClearSky
Environment:WarmupDays,  6
 Warmup Convergence Information,01_A1,SizingPeriod: ANCHORAGEMERRILLFIELDANNHUM_N99.6CONDNSDPMCDB,6.7661980366E-002,7.9785293637E-002,Pass,Pass,1.0957118247E-002,3.9543390261E-002,Pass,Pass
 Warmup Convergence Information,01_A2,SizingPeriod: ANCHORAGEMERRILLFIELDANNHUM_N99.6CONDNSDPMCDB,8.8707802766E-002,0.1064704106,Pass,Pass,1.4880170076E-002,3.4793861219E-002,Pass,Pass
 Warmup Convergence Information,01_B2,SizingPeriod: ANCHORAGEMERRILLFIELDANNHUM_N99.6CONDNSDPMCDB,6.4930017025E-002,6.9215896065E-002,Pass,Pass,3.5264958178E-003,6.5791375562E-003,Pass,Pass
 Warmup Convergence Information,01_C1,SizingPeriod: ANCHORAGEMERRILLFIELDANNHUM_N99.6CONDNSDPMCDB,5.8745017245E-002,6.1900534015E-002,Pass,Pass,3.3846786725E-003,6.1906714173E-003,Pass,Pass
 Warmup Convergence Information,02_A1,SizingPeriod: ANCHORAGEMERRILLFIELDANNHUM_N99.6CONDNSDPMCDB,1.4942792100E-002,2.9655817964E-002,Pass,Pass,1.7999296699E-002,4.4760695377E-002,Pass,Pass
 Warmup Convergence Information,02_A2,SizingPeriod: ANCHORAGEMERRILLFIELDANNHUM_N99.6CONDNSDPMCDB,3.6617815252E-002,4.9070549330E-002,Pass,Pass,1.5458704559E-002,4.1000886240E-002,Pass,Pass
 Warmup Convergence Information,02_B2,SizingPeriod: ANCHORAGEMERRILLFIELDANNHUM_N99.6CONDNSDPMCDB,4.4118845621E-002,5.4396687169E-002,Pass,Pass,1.2583555151E-002,4.0065787990E-002,Pass,Pass
 Warmup Convergence Information,02_C1,SizingPeriod: ANCHORAGEMERRILLFIELDANNHUM_N99.6CONDNSDPMCDB,3.5499889432E-002,4.5783402482E-002,Pass,Pass,1.4318544290E-002,4.2038409802E-002,Pass,Pass
 Warmup Convergence Information,03_A1,SizingPeriod: ANCHORAGEMERRILLFIELDANNHUM_N99.6CONDNSDPMCDB,2.8670093173E-002,3.9010089632E-002,Pass,Pass,1.7284156921E-002,4.9769412170E-002,Pass,Pass
 Warmup Convergence Information,03_A2,SizingPeriod: ANCHORAGEMERRILLFIELDANNHUM_N99.6CONDNSDPMCDB,4.1006644458E-002,4.6897517576E-002,Pass,Pass,1.5412236119E-002,5.3983921880E-002,Pass,Pass
 Warmup Convergence Information,03_B2,SizingPeriod: ANCHORAGEMERRILLFIELDANNHUM_N99.6CONDNSDPMCDB,6.0436683374E-002,6.3133862450E-002,Pass,Pass,9.4453229974E-003,2.2323829088E-002,Pass,Pass
 Warmup Convergence Information,03_C1,SizingPeriod: ANCHORAGEMERRILLFIELDANNHUM_N99.6CONDNSDPMCDB,5.0433058965E-002,5.5519754778E-002,Pass,Pass,1.1942479174E-002,3.2291913936E-002,Pass,Pass
Environment,RUN PERIOD 1,WeatherFileRunPeriod,01/01,12/31,Sunday,365,Use RunPeriod Specified Day,No,No,No,Yes,Yes
Environment:Daylight Saving,No,RunPeriod Object
Environment:WarmupDays,  6
 Warmup Convergence Information,01_A1,RunPeriod: RUN PERIOD 1,8.5606423543E-002,0.2328356957,Pass,Pass,7.7677708895E-002,0.2158372145,Pass,Pass
 Warmup Convergence Information,01_A2,RunPeriod: RUN PERIOD 1,0.1100184316,0.4334983620,Pass,Pass,5.5851249167E-002,0.1965777826,Pass,Pass
 Warmup Convergence Information,01_B2,RunPeriod: RUN PERIOD 1,8.7013685964E-002,0.1784638636,Pass,Pass,3.0054621854E-002,0.1203507847,Pass,Pass
 Warmup Convergence Information,01_C1,RunPeriod: RUN PERIOD 1,7.6806989228E-002,0.1609204168,Pass,Pass,4.6001793879E-002,0.1359194074,Pass,Pass
 Warmup Convergence Information,02_A1,RunPeriod: RUN PERIOD 1,6.0425989786E-002,0.2245690479,Pass,Pass,0.2320098735,0.8349772695,Pass,Pass
 Warmup Convergence Information,02_A2,RunPeriod: RUN PERIOD 1,9.8120790963E-002,0.3883984033,Pass,Pass,5.7775310405E-002,0.2571813302,Pass,Pass
 Warmup Convergence Information,02_B2,RunPeriod: RUN PERIOD 1,6.0242670554E-002,0.1921271244,Pass,Pass,4.5345010187E-002,0.1439049968,Pass,Pass
 Warmup Convergence Information,02_C1,RunPeriod: RUN PERIOD 1,4.9161334376E-002,0.1740788058,Pass,Pass,0.1642242643,0.6387081197,Pass,Pass
 Warmup Convergence Information,03_A1,RunPeriod: RUN PERIOD 1,7.9034534052E-002,0.2579140653,Pass,Pass,0.1441157114,0.3944377174,Pass,Pass
 Warmup Convergence Information,03_A2,RunPeriod: RUN PERIOD 1,9.1751571758E-002,0.2845419417,Pass,Pass,5.4306976486E-002,0.1958384731,Pass,Pass
 Warmup Convergence Information,03_B2,RunPeriod: RUN PERIOD 1,7.7423234883E-002,0.2293039125,Pass,Pass,5.6974114959E-002,0.2024879981,Pass,Pass
 Warmup Convergence Information,03_C1,RunPeriod: RUN PERIOD 1,6.7243261892E-002,0.2098668614,Pass,Pass,0.1675187906,0.5220190080,Pass,Pass
! <Program Control Information:Threads/Parallel Sims>, Threading Supported,Maximum Number of Threads, Env Set Threads (OMP_NUM_THREADS), EP Env Set Threads (EP_OMP_NUM_THREADS), IDF Set Threads, Number of Threads Used (Interior Radiant Exchange), Number Nominal Surfaces, Number Parallel Sims
Program Control:Threads/Parallel Sims, No,1, N/A, N/A, N/A, N/A, N/A, N/A
End of Data
