Program Version,EnergyPlus, Version 8.9.0-40101eaafd, YMD=2018.05.31 16:17
! This file shows details about the branches, nodes, and other
! elements of the flow connections.
! This file is intended for use in "debugging" potential problems
! that may also be detected by the program, but may be more easily
! identified by "eye".
! This file is also intended to support software which draws a
! schematic diagram of the HVAC system.
! ===============================================================
! #Nodes,<Number of Unique Nodes>
 #Nodes,159
! <Node>,<NodeNumber>,<Node Name>,<Node Fluid Type>,<# Times Node Referenced After Definition>
 Node,1,NODE 17,Air,3
 Node,2,NODE 23,Air,1
 Node,3,NODE 28,Air,3
 Node,4,NODE 22,Air,1
 Node,5,NODE 37,Air,3
 Node,6,NODE 46,Air,3
 Node,7,NODE 55,Air,3
 Node,8,NODE 64,Air,3
 Node,9,NODE 73,Air,3
 Node,10,NODE 82,Air,3
 Node,11,NODE 91,Air,3
 Node,12,NODE 100,Air,3
 Node,13,NODE 109,Air,3
 Node,14,NODE 118,Air,3
 Node,15,NODE 14,Air,4
 Node,16,NODE 15,Air,3
 Node,17,NODE 97,Air,4
 Node,18,NODE 98,Air,3
 Node,19,NODE 106,Air,4
 Node,20,NODE 107,Air,3
 Node,21,NODE 115,Air,4
 Node,22,NODE 116,Air,3
 Node,23,NODE 25,Air,4
 Node,24,NODE 26,Air,3
 Node,25,NODE 34,Air,4
 Node,26,NODE 35,Air,3
 Node,27,NODE 43,Air,4
 Node,28,NODE 44,Air,3
 Node,29,NODE 52,Air,4
 Node,30,NODE 53,Air,3
 Node,31,NODE 61,Air,4
 Node,32,NODE 62,Air,3
 Node,33,NODE 70,Air,4
 Node,34,NODE 71,Air,3
 Node,35,NODE 79,Air,4
 Node,36,NODE 80,Air,3
 Node,37,NODE 88,Air,4
 Node,38,NODE 89,Air,3
 Node,39,NODE 13,Air,3
 Node,40,NODE 20,Air,5
 Node,41,NODE 96,Air,3
 Node,42,NODE 103,Air,5
 Node,43,NODE 105,Air,3
 Node,44,NODE 113,Air,5
 Node,45,NODE 114,Air,3
 Node,46,NODE 122,Air,5
 Node,47,NODE 24,Air,3
 Node,48,NODE 32,Air,5
 Node,49,NODE 33,Air,3
 Node,50,NODE 41,Air,5
 Node,51,NODE 42,Air,3
 Node,52,NODE 50,Air,5
 Node,53,NODE 51,Air,3
 Node,54,NODE 59,Air,5
 Node,55,NODE 60,Air,3
 Node,56,NODE 68,Air,5
 Node,57,NODE 69,Air,3
 Node,58,NODE 77,Air,5
 Node,59,NODE 78,Air,3
 Node,60,NODE 86,Air,5
 Node,61,NODE 87,Air,3
 Node,62,NODE 95,Air,5
 Node,63,NODE 2,Air,0
 Node,64,NODE 21,Air,1
 Node,65,NODE 1,Air,0
 Node,66,NODE 29,Air,1
 Node,67,NODE 4,Air,0
 Node,68,NODE 38,Air,1
 Node,69,NODE 3,Air,0
 Node,70,NODE 47,Air,1
 Node,71,NODE 6,Air,0
 Node,72,NODE 56,Air,1
 Node,73,NODE 5,Air,0
 Node,74,NODE 65,Air,1
 Node,75,NODE 8,Air,0
 Node,76,NODE 74,Air,1
 Node,77,NODE 7,Air,0
 Node,78,NODE 83,Air,1
 Node,79,NODE 10,Air,0
 Node,80,NODE 92,Air,1
 Node,81,NODE 9,Air,0
 Node,82,NODE 104,Air,1
 Node,83,NODE 12,Air,0
 Node,84,NODE 110,Air,1
 Node,85,NODE 11,Air,0
 Node,86,NODE 119,Air,1
 Node,87,NODE 16,Air,2
 Node,88,NODE 99,Air,2
 Node,89,NODE 108,Air,2
 Node,90,NODE 117,Air,2
 Node,91,NODE 27,Air,2
 Node,92,NODE 36,Air,2
 Node,93,NODE 45,Air,2
 Node,94,NODE 54,Air,2
 Node,95,NODE 63,Air,2
 Node,96,NODE 72,Air,2
 Node,97,NODE 81,Air,2
 Node,98,NODE 90,Air,2
 Node,99,NODE 18,Air,2
 Node,100,NODE 101,Air,2
 Node,101,NODE 111,Air,2
 Node,102,NODE 120,Air,2
 Node,103,NODE 30,Air,2
 Node,104,NODE 39,Air,2
 Node,105,NODE 48,Air,2
 Node,106,NODE 57,Air,2
 Node,107,NODE 66,Air,2
 Node,108,NODE 75,Air,2
 Node,109,NODE 84,Air,2
 Node,110,NODE 93,Air,2
 Node,111,MODEL OUTDOOR AIR NODE,Air,0
 Node,112,NODE 19,Air,1
 Node,113,NODE 102,Air,1
 Node,114,NODE 112,Air,1
 Node,115,NODE 121,Air,1
 Node,116,NODE 31,Air,1
 Node,117,NODE 40,Air,1
 Node,118,NODE 49,Air,1
 Node,119,NODE 58,Air,1
 Node,120,NODE 67,Air,1
 Node,121,NODE 76,Air,1
 Node,122,NODE 85,Air,1
 Node,123,NODE 94,Air,1
 Node,124,UNITARY - DX HEAT PUMP - CYCLING - ELEC REHEAT FAN - COOLING COIL NODE,Air,1
 Node,125,UNITARY - DX HEAT PUMP - CYCLING - ELEC REHEAT 9 FAN - COOLING COIL NODE,Air,1
 Node,126,UNITARY - DX HEAT PUMP - CYCLING - ELEC REHEAT 10 FAN - COOLING COIL NODE,Air,1
 Node,127,UNITARY - DX HEAT PUMP - CYCLING - ELEC REHEAT 11 FAN - COOLING COIL NODE,Air,1
 Node,128,UNITARY - DX HEAT PUMP - CYCLING - ELEC REHEAT 1 FAN - COOLING COIL NODE,Air,1
 Node,129,UNITARY - DX HEAT PUMP - CYCLING - ELEC REHEAT 2 FAN - COOLING COIL NODE,Air,1
 Node,130,UNITARY - DX HEAT PUMP - CYCLING - ELEC REHEAT 3 FAN - COOLING COIL NODE,Air,1
 Node,131,UNITARY - DX HEAT PUMP - CYCLING - ELEC REHEAT 4 FAN - COOLING COIL NODE,Air,1
 Node,132,UNITARY - DX HEAT PUMP - CYCLING - ELEC REHEAT 5 FAN - COOLING COIL NODE,Air,1
 Node,133,UNITARY - DX HEAT PUMP - CYCLING - ELEC REHEAT 6 FAN - COOLING COIL NODE,Air,1
 Node,134,UNITARY - DX HEAT PUMP - CYCLING - ELEC REHEAT 7 FAN - COOLING COIL NODE,Air,1
 Node,135,UNITARY - DX HEAT PUMP - CYCLING - ELEC REHEAT 8 FAN - COOLING COIL NODE,Air,1
 Node,136,UNITARY - DX HEAT PUMP - CYCLING - ELEC REHEAT COOLING COIL - HEATING COIL NODE,Air,1
 Node,137,UNITARY - DX HEAT PUMP - CYCLING - ELEC REHEAT 9 COOLING COIL - HEATING COIL NODE,Air,1
 Node,138,UNITARY - DX HEAT PUMP - CYCLING - ELEC REHEAT 10 COOLING COIL - HEATING COIL NODE,Air,1
 Node,139,UNITARY - DX HEAT PUMP - CYCLING - ELEC REHEAT 11 COOLING COIL - HEATING COIL NODE,Air,1
 Node,140,UNITARY - DX HEAT PUMP - CYCLING - ELEC REHEAT 1 COOLING COIL - HEATING COIL NODE,Air,1
 Node,141,UNITARY - DX HEAT PUMP - CYCLING - ELEC REHEAT 2 COOLING COIL - HEATING COIL NODE,Air,1
 Node,142,UNITARY - DX HEAT PUMP - CYCLING - ELEC REHEAT 3 COOLING COIL - HEATING COIL NODE,Air,1
 Node,143,UNITARY - DX HEAT PUMP - CYCLING - ELEC REHEAT 4 COOLING COIL - HEATING COIL NODE,Air,1
 Node,144,UNITARY - DX HEAT PUMP - CYCLING - ELEC REHEAT 5 COOLING COIL - HEATING COIL NODE,Air,1
 Node,145,UNITARY - DX HEAT PUMP - CYCLING - ELEC REHEAT 6 COOLING COIL - HEATING COIL NODE,Air,1
 Node,146,UNITARY - DX HEAT PUMP - CYCLING - ELEC REHEAT 7 COOLING COIL - HEATING COIL NODE,Air,1
 Node,147,UNITARY - DX HEAT PUMP - CYCLING - ELEC REHEAT 8 COOLING COIL - HEATING COIL NODE,Air,1
 Node,148,UNITARY - DX HEAT PUMP - CYCLING - ELEC REHEAT HEATING COIL - SUPPLEMENTAL COIL NODE,Air,1
 Node,149,UNITARY - DX HEAT PUMP - CYCLING - ELEC REHEAT 9 HEATING COIL - SUPPLEMENTAL COIL NODE,Air,1
 Node,150,UNITARY - DX HEAT PUMP - CYCLING - ELEC REHEAT 10 HEATING COIL - SUPPLEMENTAL COIL NODE,Air,1
 Node,151,UNITARY - DX HEAT PUMP - CYCLING - ELEC REHEAT 11 HEATING COIL - SUPPLEMENTAL COIL NODE,Air,1
 Node,152,UNITARY - DX HEAT PUMP - CYCLING - ELEC REHEAT 1 HEATING COIL - SUPPLEMENTAL COIL NODE,Air,1
 Node,153,UNITARY - DX HEAT PUMP - CYCLING - ELEC REHEAT 2 HEATING COIL - SUPPLEMENTAL COIL NODE,Air,1
 Node,154,UNITARY - DX HEAT PUMP - CYCLING - ELEC REHEAT 3 HEATING COIL - SUPPLEMENTAL COIL NODE,Air,1
 Node,155,UNITARY - DX HEAT PUMP - CYCLING - ELEC REHEAT 4 HEATING COIL - SUPPLEMENTAL COIL NODE,Air,1
 Node,156,UNITARY - DX HEAT PUMP - CYCLING - ELEC REHEAT 5 HEATING COIL - SUPPLEMENTAL COIL NODE,Air,1
 Node,157,UNITARY - DX HEAT PUMP - CYCLING - ELEC REHEAT 6 HEATING COIL - SUPPLEMENTAL COIL NODE,Air,1
 Node,158,UNITARY - DX HEAT PUMP - CYCLING - ELEC REHEAT 7 HEATING COIL - SUPPLEMENTAL COIL NODE,Air,1
 Node,159,UNITARY - DX HEAT PUMP - CYCLING - ELEC REHEAT 8 HEATING COIL - SUPPLEMENTAL COIL NODE,Air,1
! ===============================================================
! Suspicious nodes have 0 references.  It is normal for some nodes, however.
! Listing nodes with 0 references (culled from previous list):
! <Suspicious Node>,<NodeNumber>,<Node Name>,<Node Fluid Type>,<# Times Node Referenced After Definition>
 Suspicious Node,63,NODE 2,Air,0
 Suspicious Node,65,NODE 1,Air,0
 Suspicious Node,67,NODE 4,Air,0
 Suspicious Node,69,NODE 3,Air,0
 Suspicious Node,71,NODE 6,Air,0
 Suspicious Node,73,NODE 5,Air,0
 Suspicious Node,75,NODE 8,Air,0
 Suspicious Node,77,NODE 7,Air,0
 Suspicious Node,79,NODE 10,Air,0
 Suspicious Node,81,NODE 9,Air,0
 Suspicious Node,83,NODE 12,Air,0
 Suspicious Node,85,NODE 11,Air,0
 Suspicious Node,111,MODEL OUTDOOR AIR NODE,Air,0
! ===============================================================
! <#Branch Lists>,<Number of Branch Lists>
 #Branch Lists,12
! <Branch List>,<Branch List Count>,<Branch List Name>,<Loop Name>,<Loop Type>,<Number of Branches>
! <Branch>,<Branch Count>,<Branch Name>,<Loop Name>,<Loop Type>,<Branch Inlet Node Name>,<Branch Outlet Node Name>
 Branch List,1,AIR LOOP HVAC 1 SUPPLY BRANCHES,AIR LOOP HVAC 1,Air,1
   Branch,1,AIR LOOP HVAC 1 MAIN BRANCH,AIR LOOP HVAC 1,Air,NODE 13,NODE 14
 Branch List,2,AIR LOOP HVAC 10 SUPPLY BRANCHES,AIR LOOP HVAC 10,Air,1
   Branch,1,AIR LOOP HVAC 10 MAIN BRANCH,AIR LOOP HVAC 10,Air,NODE 96,NODE 97
 Branch List,3,AIR LOOP HVAC 11 SUPPLY BRANCHES,AIR LOOP HVAC 11,Air,1
   Branch,1,AIR LOOP HVAC 11 MAIN BRANCH,AIR LOOP HVAC 11,Air,NODE 105,NODE 106
 Branch List,4,AIR LOOP HVAC 12 SUPPLY BRANCHES,AIR LOOP HVAC 12,Air,1
   Branch,1,AIR LOOP HVAC 12 MAIN BRANCH,AIR LOOP HVAC 12,Air,NODE 114,NODE 115
 Branch List,5,AIR LOOP HVAC 2 SUPPLY BRANCHES,AIR LOOP HVAC 2,Air,1
   Branch,1,AIR LOOP HVAC 2 MAIN BRANCH,AIR LOOP HVAC 2,Air,NODE 24,NODE 25
 Branch List,6,AIR LOOP HVAC 3 SUPPLY BRANCHES,AIR LOOP HVAC 3,Air,1
   Branch,1,AIR LOOP HVAC 3 MAIN BRANCH,AIR LOOP HVAC 3,Air,NODE 33,NODE 34
 Branch List,7,AIR LOOP HVAC 4 SUPPLY BRANCHES,AIR LOOP HVAC 4,Air,1
   Branch,1,AIR LOOP HVAC 4 MAIN BRANCH,AIR LOOP HVAC 4,Air,NODE 42,NODE 43
 Branch List,8,AIR LOOP HVAC 5 SUPPLY BRANCHES,AIR LOOP HVAC 5,Air,1
   Branch,1,AIR LOOP HVAC 5 MAIN BRANCH,AIR LOOP HVAC 5,Air,NODE 51,NODE 52
 Branch List,9,AIR LOOP HVAC 6 SUPPLY BRANCHES,AIR LOOP HVAC 6,Air,1
   Branch,1,AIR LOOP HVAC 6 MAIN BRANCH,AIR LOOP HVAC 6,Air,NODE 60,NODE 61
 Branch List,10,AIR LOOP HVAC 7 SUPPLY BRANCHES,AIR LOOP HVAC 7,Air,1
   Branch,1,AIR LOOP HVAC 7 MAIN BRANCH,AIR LOOP HVAC 7,Air,NODE 69,NODE 70
 Branch List,11,AIR LOOP HVAC 8 SUPPLY BRANCHES,AIR LOOP HVAC 8,Air,1
   Branch,1,AIR LOOP HVAC 8 MAIN BRANCH,AIR LOOP HVAC 8,Air,NODE 78,NODE 79
 Branch List,12,AIR LOOP HVAC 9 SUPPLY BRANCHES,AIR LOOP HVAC 9,Air,1
   Branch,1,AIR LOOP HVAC 9 MAIN BRANCH,AIR LOOP HVAC 9,Air,NODE 87,NODE 88
! ===============================================================
! <#Supply Air Paths>,<Number of Supply Air Paths>
 #Supply Air Paths,12
! <Supply Air Path>,<Supply Air Path Count>,<Supply Air Path Name>,<AirLoopHVAC Name>
! <#Components on Supply Air Path>,<Number of Components>
! <Supply Air Path Component>,<Component Count>,<Component Type>,<Component Name>,<AirLoopHVAC Name>
! <#Outlet Nodes on Supply Air Path Component>,<Number of Nodes>
! <Supply Air Path Component Nodes>,<Node Count>,<Component Type>,<Component Name>,<Inlet Node Name>,<Outlet Node Name>,<AirLoopHVAC Name>
 Supply Air Path,1,AIR LOOP HVAC 1 NODE 15 SUPPLY PATH,AIR LOOP HVAC 1
   #Components on Supply Air Path,1
   Supply Air Path Component,1,AIRLOOPHVAC:ZONESPLITTER,AIR LOOP HVAC ZONE SPLITTER 1,AIR LOOP HVAC 1
     #Outlet Nodes on Supply Air Path Component,1
     Supply Air Path Component Nodes,1,AIRLOOPHVAC:ZONESPLITTER,AIR LOOP HVAC ZONE SPLITTER 1,NODE 15,NODE 17,AIR LOOP HVAC 1
! <#Nodes on Supply Air Path>,<Number of Nodes>
! <Supply Air Path Node>,<Node Type>,<Node Count>,<Node Name>,<AirLoopHVAC Name>
#Nodes on Supply Air Path,2
   Supply Air Path Node,Inlet Node,1,NODE 15,AIR LOOP HVAC 1
   Supply Air Path Node,Outlet Node,2,NODE 17,AIR LOOP HVAC 1
 Supply Air Path,2,AIR LOOP HVAC 10 NODE 98 SUPPLY PATH,AIR LOOP HVAC 10
   #Components on Supply Air Path,1
   Supply Air Path Component,1,AIRLOOPHVAC:ZONESPLITTER,AIR LOOP HVAC ZONE SPLITTER 10,AIR LOOP HVAC 10
     #Outlet Nodes on Supply Air Path Component,1
     Supply Air Path Component Nodes,1,AIRLOOPHVAC:ZONESPLITTER,AIR LOOP HVAC ZONE SPLITTER 10,NODE 98,NODE 100,AIR LOOP HVAC 10
! <#Nodes on Supply Air Path>,<Number of Nodes>
! <Supply Air Path Node>,<Node Type>,<Node Count>,<Node Name>,<AirLoopHVAC Name>
#Nodes on Supply Air Path,2
   Supply Air Path Node,Inlet Node,1,NODE 98,AIR LOOP HVAC 10
   Supply Air Path Node,Outlet Node,2,NODE 100,AIR LOOP HVAC 10
 Supply Air Path,3,AIR LOOP HVAC 11 NODE 107 SUPPLY PATH,AIR LOOP HVAC 11
   #Components on Supply Air Path,1
   Supply Air Path Component,1,AIRLOOPHVAC:ZONESPLITTER,AIR LOOP HVAC ZONE SPLITTER 11,AIR LOOP HVAC 11
     #Outlet Nodes on Supply Air Path Component,1
     Supply Air Path Component Nodes,1,AIRLOOPHVAC:ZONESPLITTER,AIR LOOP HVAC ZONE SPLITTER 11,NODE 107,NODE 109,AIR LOOP HVAC 11
! <#Nodes on Supply Air Path>,<Number of Nodes>
! <Supply Air Path Node>,<Node Type>,<Node Count>,<Node Name>,<AirLoopHVAC Name>
#Nodes on Supply Air Path,2
   Supply Air Path Node,Inlet Node,1,NODE 107,AIR LOOP HVAC 11
   Supply Air Path Node,Outlet Node,2,NODE 109,AIR LOOP HVAC 11
 Supply Air Path,4,AIR LOOP HVAC 12 NODE 116 SUPPLY PATH,AIR LOOP HVAC 12
   #Components on Supply Air Path,1
   Supply Air Path Component,1,AIRLOOPHVAC:ZONESPLITTER,AIR LOOP HVAC ZONE SPLITTER 12,AIR LOOP HVAC 12
     #Outlet Nodes on Supply Air Path Component,1
     Supply Air Path Component Nodes,1,AIRLOOPHVAC:ZONESPLITTER,AIR LOOP HVAC ZONE SPLITTER 12,NODE 116,NODE 118,AIR LOOP HVAC 12
! <#Nodes on Supply Air Path>,<Number of Nodes>
! <Supply Air Path Node>,<Node Type>,<Node Count>,<Node Name>,<AirLoopHVAC Name>
#Nodes on Supply Air Path,2
   Supply Air Path Node,Inlet Node,1,NODE 116,AIR LOOP HVAC 12
   Supply Air Path Node,Outlet Node,2,NODE 118,AIR LOOP HVAC 12
 Supply Air Path,5,AIR LOOP HVAC 2 NODE 26 SUPPLY PATH,AIR LOOP HVAC 2
   #Components on Supply Air Path,1
   Supply Air Path Component,1,AIRLOOPHVAC:ZONESPLITTER,AIR LOOP HVAC ZONE SPLITTER 2,AIR LOOP HVAC 2
     #Outlet Nodes on Supply Air Path Component,1
     Supply Air Path Component Nodes,1,AIRLOOPHVAC:ZONESPLITTER,AIR LOOP HVAC ZONE SPLITTER 2,NODE 26,NODE 28,AIR LOOP HVAC 2
! <#Nodes on Supply Air Path>,<Number of Nodes>
! <Supply Air Path Node>,<Node Type>,<Node Count>,<Node Name>,<AirLoopHVAC Name>
#Nodes on Supply Air Path,2
   Supply Air Path Node,Inlet Node,1,NODE 26,AIR LOOP HVAC 2
   Supply Air Path Node,Outlet Node,2,NODE 28,AIR LOOP HVAC 2
 Supply Air Path,6,AIR LOOP HVAC 3 NODE 35 SUPPLY PATH,AIR LOOP HVAC 3
   #Components on Supply Air Path,1
   Supply Air Path Component,1,AIRLOOPHVAC:ZONESPLITTER,AIR LOOP HVAC ZONE SPLITTER 3,AIR LOOP HVAC 3
     #Outlet Nodes on Supply Air Path Component,1
     Supply Air Path Component Nodes,1,AIRLOOPHVAC:ZONESPLITTER,AIR LOOP HVAC ZONE SPLITTER 3,NODE 35,NODE 37,AIR LOOP HVAC 3
! <#Nodes on Supply Air Path>,<Number of Nodes>
! <Supply Air Path Node>,<Node Type>,<Node Count>,<Node Name>,<AirLoopHVAC Name>
#Nodes on Supply Air Path,2
   Supply Air Path Node,Inlet Node,1,NODE 35,AIR LOOP HVAC 3
   Supply Air Path Node,Outlet Node,2,NODE 37,AIR LOOP HVAC 3
 Supply Air Path,7,AIR LOOP HVAC 4 NODE 44 SUPPLY PATH,AIR LOOP HVAC 4
   #Components on Supply Air Path,1
   Supply Air Path Component,1,AIRLOOPHVAC:ZONESPLITTER,AIR LOOP HVAC ZONE SPLITTER 4,AIR LOOP HVAC 4
     #Outlet Nodes on Supply Air Path Component,1
     Supply Air Path Component Nodes,1,AIRLOOPHVAC:ZONESPLITTER,AIR LOOP HVAC ZONE SPLITTER 4,NODE 44,NODE 46,AIR LOOP HVAC 4
! <#Nodes on Supply Air Path>,<Number of Nodes>
! <Supply Air Path Node>,<Node Type>,<Node Count>,<Node Name>,<AirLoopHVAC Name>
#Nodes on Supply Air Path,2
   Supply Air Path Node,Inlet Node,1,NODE 44,AIR LOOP HVAC 4
   Supply Air Path Node,Outlet Node,2,NODE 46,AIR LOOP HVAC 4
 Supply Air Path,8,AIR LOOP HVAC 5 NODE 53 SUPPLY PATH,AIR LOOP HVAC 5
   #Components on Supply Air Path,1
   Supply Air Path Component,1,AIRLOOPHVAC:ZONESPLITTER,AIR LOOP HVAC ZONE SPLITTER 5,AIR LOOP HVAC 5
     #Outlet Nodes on Supply Air Path Component,1
     Supply Air Path Component Nodes,1,AIRLOOPHVAC:ZONESPLITTER,AIR LOOP HVAC ZONE SPLITTER 5,NODE 53,NODE 55,AIR LOOP HVAC 5
! <#Nodes on Supply Air Path>,<Number of Nodes>
! <Supply Air Path Node>,<Node Type>,<Node Count>,<Node Name>,<AirLoopHVAC Name>
#Nodes on Supply Air Path,2
   Supply Air Path Node,Inlet Node,1,NODE 53,AIR LOOP HVAC 5
   Supply Air Path Node,Outlet Node,2,NODE 55,AIR LOOP HVAC 5
 Supply Air Path,9,AIR LOOP HVAC 6 NODE 62 SUPPLY PATH,AIR LOOP HVAC 6
   #Components on Supply Air Path,1
   Supply Air Path Component,1,AIRLOOPHVAC:ZONESPLITTER,AIR LOOP HVAC ZONE SPLITTER 6,AIR LOOP HVAC 6
     #Outlet Nodes on Supply Air Path Component,1
     Supply Air Path Component Nodes,1,AIRLOOPHVAC:ZONESPLITTER,AIR LOOP HVAC ZONE SPLITTER 6,NODE 62,NODE 64,AIR LOOP HVAC 6
! <#Nodes on Supply Air Path>,<Number of Nodes>
! <Supply Air Path Node>,<Node Type>,<Node Count>,<Node Name>,<AirLoopHVAC Name>
#Nodes on Supply Air Path,2
   Supply Air Path Node,Inlet Node,1,NODE 62,AIR LOOP HVAC 6
   Supply Air Path Node,Outlet Node,2,NODE 64,AIR LOOP HVAC 6
 Supply Air Path,10,AIR LOOP HVAC 7 NODE 71 SUPPLY PATH,AIR LOOP HVAC 7
   #Components on Supply Air Path,1
   Supply Air Path Component,1,AIRLOOPHVAC:ZONESPLITTER,AIR LOOP HVAC ZONE SPLITTER 7,AIR LOOP HVAC 7
     #Outlet Nodes on Supply Air Path Component,1
     Supply Air Path Component Nodes,1,AIRLOOPHVAC:ZONESPLITTER,AIR LOOP HVAC ZONE SPLITTER 7,NODE 71,NODE 73,AIR LOOP HVAC 7
! <#Nodes on Supply Air Path>,<Number of Nodes>
! <Supply Air Path Node>,<Node Type>,<Node Count>,<Node Name>,<AirLoopHVAC Name>
#Nodes on Supply Air Path,2
   Supply Air Path Node,Inlet Node,1,NODE 71,AIR LOOP HVAC 7
   Supply Air Path Node,Outlet Node,2,NODE 73,AIR LOOP HVAC 7
 Supply Air Path,11,AIR LOOP HVAC 8 NODE 80 SUPPLY PATH,AIR LOOP HVAC 8
   #Components on Supply Air Path,1
   Supply Air Path Component,1,AIRLOOPHVAC:ZONESPLITTER,AIR LOOP HVAC ZONE SPLITTER 8,AIR LOOP HVAC 8
     #Outlet Nodes on Supply Air Path Component,1
     Supply Air Path Component Nodes,1,AIRLOOPHVAC:ZONESPLITTER,AIR LOOP HVAC ZONE SPLITTER 8,NODE 80,NODE 82,AIR LOOP HVAC 8
! <#Nodes on Supply Air Path>,<Number of Nodes>
! <Supply Air Path Node>,<Node Type>,<Node Count>,<Node Name>,<AirLoopHVAC Name>
#Nodes on Supply Air Path,2
   Supply Air Path Node,Inlet Node,1,NODE 80,AIR LOOP HVAC 8
   Supply Air Path Node,Outlet Node,2,NODE 82,AIR LOOP HVAC 8
 Supply Air Path,12,AIR LOOP HVAC 9 NODE 89 SUPPLY PATH,AIR LOOP HVAC 9
   #Components on Supply Air Path,1
   Supply Air Path Component,1,AIRLOOPHVAC:ZONESPLITTER,AIR LOOP HVAC ZONE SPLITTER 9,AIR LOOP HVAC 9
     #Outlet Nodes on Supply Air Path Component,1
     Supply Air Path Component Nodes,1,AIRLOOPHVAC:ZONESPLITTER,AIR LOOP HVAC ZONE SPLITTER 9,NODE 89,NODE 91,AIR LOOP HVAC 9
! <#Nodes on Supply Air Path>,<Number of Nodes>
! <Supply Air Path Node>,<Node Type>,<Node Count>,<Node Name>,<AirLoopHVAC Name>
#Nodes on Supply Air Path,2
   Supply Air Path Node,Inlet Node,1,NODE 89,AIR LOOP HVAC 9
   Supply Air Path Node,Outlet Node,2,NODE 91,AIR LOOP HVAC 9
! ===============================================================
! <#Return Air Paths>,<Number of Return Air Paths>
 #Return Air Paths,12
! <Return Air Path>,<Return Air Path Count>,<Return Air Path Name>,<AirLoopHVAC Name>
! <#Components on Return Air Path>,<Number of Components>
! <Return Air Path Component>,<Component Count>,<Component Type>,<Component Name>,<AirLoopHVAC Name>
! <#Inlet Nodes on Return Air Path Component>,<Number of Nodes>
! <Return Air Path Component Nodes>,<Node Count>,<Component Type>,<Component Name>,<Inlet Node Name>,<Outlet Node Name>,<AirLoopHVAC Name>
 Return Air Path,1,AIR LOOP HVAC 1 RETURN PATH,AIR LOOP HVAC 1
   #Components on Return Air Path,1
   Return Air Path Component,1,AIRLOOPHVAC:ZONEMIXER,AIR LOOP HVAC ZONE MIXER 1,AIR LOOP HVAC 1
     #Inlet Nodes on Return Air Path Component,1
     Return Air Path Component Nodes,1,AIRLOOPHVAC:ZONEMIXER,AIR LOOP HVAC ZONE MIXER 1,NODE 21,NODE 16,AIR LOOP HVAC 1
! <#Nodes on Return Air Path>,<Number of Nodes>
! <Return Air Path Node>,<Node Type>,<Node Count>,<Node Name>,<AirLoopHVAC Name>
   #Nodes on Return Air Path,2
   Return Air Path Node,Outlet Node,1,NODE 16,AIR LOOP HVAC 1
   Return Air Path Node,Inlet Node,2,NODE 21,AIR LOOP HVAC 1
 Return Air Path,2,AIR LOOP HVAC 10 RETURN PATH,AIR LOOP HVAC 10
   #Components on Return Air Path,1
   Return Air Path Component,1,AIRLOOPHVAC:ZONEMIXER,AIR LOOP HVAC ZONE MIXER 10,AIR LOOP HVAC 10
     #Inlet Nodes on Return Air Path Component,1
     Return Air Path Component Nodes,1,AIRLOOPHVAC:ZONEMIXER,AIR LOOP HVAC ZONE MIXER 10,NODE 104,NODE 99,AIR LOOP HVAC 10
! <#Nodes on Return Air Path>,<Number of Nodes>
! <Return Air Path Node>,<Node Type>,<Node Count>,<Node Name>,<AirLoopHVAC Name>
   #Nodes on Return Air Path,2
   Return Air Path Node,Outlet Node,1,NODE 99,AIR LOOP HVAC 10
   Return Air Path Node,Inlet Node,2,NODE 104,AIR LOOP HVAC 10
 Return Air Path,3,AIR LOOP HVAC 11 RETURN PATH,AIR LOOP HVAC 11
   #Components on Return Air Path,1
   Return Air Path Component,1,AIRLOOPHVAC:ZONEMIXER,AIR LOOP HVAC ZONE MIXER 11,AIR LOOP HVAC 11
     #Inlet Nodes on Return Air Path Component,1
     Return Air Path Component Nodes,1,AIRLOOPHVAC:ZONEMIXER,AIR LOOP HVAC ZONE MIXER 11,NODE 110,NODE 108,AIR LOOP HVAC 11
! <#Nodes on Return Air Path>,<Number of Nodes>
! <Return Air Path Node>,<Node Type>,<Node Count>,<Node Name>,<AirLoopHVAC Name>
   #Nodes on Return Air Path,2
   Return Air Path Node,Outlet Node,1,NODE 108,AIR LOOP HVAC 11
   Return Air Path Node,Inlet Node,2,NODE 110,AIR LOOP HVAC 11
 Return Air Path,4,AIR LOOP HVAC 12 RETURN PATH,AIR LOOP HVAC 12
   #Components on Return Air Path,1
   Return Air Path Component,1,AIRLOOPHVAC:ZONEMIXER,AIR LOOP HVAC ZONE MIXER 12,AIR LOOP HVAC 12
     #Inlet Nodes on Return Air Path Component,1
     Return Air Path Component Nodes,1,AIRLOOPHVAC:ZONEMIXER,AIR LOOP HVAC ZONE MIXER 12,NODE 119,NODE 117,AIR LOOP HVAC 12
! <#Nodes on Return Air Path>,<Number of Nodes>
! <Return Air Path Node>,<Node Type>,<Node Count>,<Node Name>,<AirLoopHVAC Name>
   #Nodes on Return Air Path,2
   Return Air Path Node,Outlet Node,1,NODE 117,AIR LOOP HVAC 12
   Return Air Path Node,Inlet Node,2,NODE 119,AIR LOOP HVAC 12
 Return Air Path,5,AIR LOOP HVAC 2 RETURN PATH,AIR LOOP HVAC 2
   #Components on Return Air Path,1
   Return Air Path Component,1,AIRLOOPHVAC:ZONEMIXER,AIR LOOP HVAC ZONE MIXER 2,AIR LOOP HVAC 2
     #Inlet Nodes on Return Air Path Component,1
     Return Air Path Component Nodes,1,AIRLOOPHVAC:ZONEMIXER,AIR LOOP HVAC ZONE MIXER 2,NODE 29,NODE 27,AIR LOOP HVAC 2
! <#Nodes on Return Air Path>,<Number of Nodes>
! <Return Air Path Node>,<Node Type>,<Node Count>,<Node Name>,<AirLoopHVAC Name>
   #Nodes on Return Air Path,2
   Return Air Path Node,Outlet Node,1,NODE 27,AIR LOOP HVAC 2
   Return Air Path Node,Inlet Node,2,NODE 29,AIR LOOP HVAC 2
 Return Air Path,6,AIR LOOP HVAC 3 RETURN PATH,AIR LOOP HVAC 3
   #Components on Return Air Path,1
   Return Air Path Component,1,AIRLOOPHVAC:ZONEMIXER,AIR LOOP HVAC ZONE MIXER 3,AIR LOOP HVAC 3
     #Inlet Nodes on Return Air Path Component,1
     Return Air Path Component Nodes,1,AIRLOOPHVAC:ZONEMIXER,AIR LOOP HVAC ZONE MIXER 3,NODE 38,NODE 36,AIR LOOP HVAC 3
! <#Nodes on Return Air Path>,<Number of Nodes>
! <Return Air Path Node>,<Node Type>,<Node Count>,<Node Name>,<AirLoopHVAC Name>
   #Nodes on Return Air Path,2
   Return Air Path Node,Outlet Node,1,NODE 36,AIR LOOP HVAC 3
   Return Air Path Node,Inlet Node,2,NODE 38,AIR LOOP HVAC 3
 Return Air Path,7,AIR LOOP HVAC 4 RETURN PATH,AIR LOOP HVAC 4
   #Components on Return Air Path,1
   Return Air Path Component,1,AIRLOOPHVAC:ZONEMIXER,AIR LOOP HVAC ZONE MIXER 4,AIR LOOP HVAC 4
     #Inlet Nodes on Return Air Path Component,1
     Return Air Path Component Nodes,1,AIRLOOPHVAC:ZONEMIXER,AIR LOOP HVAC ZONE MIXER 4,NODE 47,NODE 45,AIR LOOP HVAC 4
! <#Nodes on Return Air Path>,<Number of Nodes>
! <Return Air Path Node>,<Node Type>,<Node Count>,<Node Name>,<AirLoopHVAC Name>
   #Nodes on Return Air Path,2
   Return Air Path Node,Outlet Node,1,NODE 45,AIR LOOP HVAC 4
   Return Air Path Node,Inlet Node,2,NODE 47,AIR LOOP HVAC 4
 Return Air Path,8,AIR LOOP HVAC 5 RETURN PATH,AIR LOOP HVAC 5
   #Components on Return Air Path,1
   Return Air Path Component,1,AIRLOOPHVAC:ZONEMIXER,AIR LOOP HVAC ZONE MIXER 5,AIR LOOP HVAC 5
     #Inlet Nodes on Return Air Path Component,1
     Return Air Path Component Nodes,1,AIRLOOPHVAC:ZONEMIXER,AIR LOOP HVAC ZONE MIXER 5,NODE 56,NODE 54,AIR LOOP HVAC 5
! <#Nodes on Return Air Path>,<Number of Nodes>
! <Return Air Path Node>,<Node Type>,<Node Count>,<Node Name>,<AirLoopHVAC Name>
   #Nodes on Return Air Path,2
   Return Air Path Node,Outlet Node,1,NODE 54,AIR LOOP HVAC 5
   Return Air Path Node,Inlet Node,2,NODE 56,AIR LOOP HVAC 5
 Return Air Path,9,AIR LOOP HVAC 6 RETURN PATH,AIR LOOP HVAC 6
   #Components on Return Air Path,1
   Return Air Path Component,1,AIRLOOPHVAC:ZONEMIXER,AIR LOOP HVAC ZONE MIXER 6,AIR LOOP HVAC 6
     #Inlet Nodes on Return Air Path Component,1
     Return Air Path Component Nodes,1,AIRLOOPHVAC:ZONEMIXER,AIR LOOP HVAC ZONE MIXER 6,NODE 65,NODE 63,AIR LOOP HVAC 6
! <#Nodes on Return Air Path>,<Number of Nodes>
! <Return Air Path Node>,<Node Type>,<Node Count>,<Node Name>,<AirLoopHVAC Name>
   #Nodes on Return Air Path,2
   Return Air Path Node,Outlet Node,1,NODE 63,AIR LOOP HVAC 6
   Return Air Path Node,Inlet Node,2,NODE 65,AIR LOOP HVAC 6
 Return Air Path,10,AIR LOOP HVAC 7 RETURN PATH,AIR LOOP HVAC 7
   #Components on Return Air Path,1
   Return Air Path Component,1,AIRLOOPHVAC:ZONEMIXER,AIR LOOP HVAC ZONE MIXER 7,AIR LOOP HVAC 7
     #Inlet Nodes on Return Air Path Component,1
     Return Air Path Component Nodes,1,AIRLOOPHVAC:ZONEMIXER,AIR LOOP HVAC ZONE MIXER 7,NODE 74,NODE 72,AIR LOOP HVAC 7
! <#Nodes on Return Air Path>,<Number of Nodes>
! <Return Air Path Node>,<Node Type>,<Node Count>,<Node Name>,<AirLoopHVAC Name>
   #Nodes on Return Air Path,2
   Return Air Path Node,Outlet Node,1,NODE 72,AIR LOOP HVAC 7
   Return Air Path Node,Inlet Node,2,NODE 74,AIR LOOP HVAC 7
 Return Air Path,11,AIR LOOP HVAC 8 RETURN PATH,AIR LOOP HVAC 8
   #Components on Return Air Path,1
   Return Air Path Component,1,AIRLOOPHVAC:ZONEMIXER,AIR LOOP HVAC ZONE MIXER 8,AIR LOOP HVAC 8
     #Inlet Nodes on Return Air Path Component,1
     Return Air Path Component Nodes,1,AIRLOOPHVAC:ZONEMIXER,AIR LOOP HVAC ZONE MIXER 8,NODE 83,NODE 81,AIR LOOP HVAC 8
! <#Nodes on Return Air Path>,<Number of Nodes>
! <Return Air Path Node>,<Node Type>,<Node Count>,<Node Name>,<AirLoopHVAC Name>
   #Nodes on Return Air Path,2
   Return Air Path Node,Outlet Node,1,NODE 81,AIR LOOP HVAC 8
   Return Air Path Node,Inlet Node,2,NODE 83,AIR LOOP HVAC 8
 Return Air Path,12,AIR LOOP HVAC 9 RETURN PATH,AIR LOOP HVAC 9
   #Components on Return Air Path,1
   Return Air Path Component,1,AIRLOOPHVAC:ZONEMIXER,AIR LOOP HVAC ZONE MIXER 9,AIR LOOP HVAC 9
     #Inlet Nodes on Return Air Path Component,1
     Return Air Path Component Nodes,1,AIRLOOPHVAC:ZONEMIXER,AIR LOOP HVAC ZONE MIXER 9,NODE 92,NODE 90,AIR LOOP HVAC 9
! <#Nodes on Return Air Path>,<Number of Nodes>
! <Return Air Path Node>,<Node Type>,<Node Count>,<Node Name>,<AirLoopHVAC Name>
   #Nodes on Return Air Path,2
   Return Air Path Node,Outlet Node,1,NODE 90,AIR LOOP HVAC 9
   Return Air Path Node,Inlet Node,2,NODE 92,AIR LOOP HVAC 9
! ===============================================================
! #Outdoor Air Nodes,<Number of Outdoor Air Nodes>
 #Outdoor Air Nodes,13
! <Outdoor Air Node>,<NodeNumber>,<Node Name>
 Outdoor Air Node,99,NODE 18
 Outdoor Air Node,100,NODE 101
 Outdoor Air Node,101,NODE 111
 Outdoor Air Node,102,NODE 120
 Outdoor Air Node,103,NODE 30
 Outdoor Air Node,104,NODE 39
 Outdoor Air Node,105,NODE 48
 Outdoor Air Node,106,NODE 57
 Outdoor Air Node,107,NODE 66
 Outdoor Air Node,108,NODE 75
 Outdoor Air Node,109,NODE 84
 Outdoor Air Node,110,NODE 93
 Outdoor Air Node,111,MODEL OUTDOOR AIR NODE
! ===============================================================
! <#Component Sets>,<Number of Component Sets>
 #Component Sets,84
! <Component Set>,<Component Set Count>,<Parent Object Type>,<Parent Object Name>,<Component Type>,<Component Name>,<Inlet Node ID>,<Outlet Node ID>,<Description>
 Component Set,1,BRANCH,AIR LOOP HVAC 1 MAIN BRANCH,AIRLOOPHVAC:OUTDOORAIRSYSTEM,OA SYSTEM,NODE 13,NODE 20,Air Nodes
 Component Set,2,BRANCH,AIR LOOP HVAC 1 MAIN BRANCH,AIRLOOPHVAC:UNITARYSYSTEM,UNITARY - DX HEAT PUMP - CYCLING - ELEC REHEAT,NODE 20,NODE 14,Air Nodes
 Component Set,3,BRANCH,AIR LOOP HVAC 10 MAIN BRANCH,AIRLOOPHVAC:OUTDOORAIRSYSTEM,OA SYSTEM 9,NODE 96,NODE 103,Air Nodes
 Component Set,4,BRANCH,AIR LOOP HVAC 10 MAIN BRANCH,AIRLOOPHVAC:UNITARYSYSTEM,UNITARY - DX HEAT PUMP - CYCLING - ELEC REHEAT 9,NODE 103,NODE 97,Air Nodes
 Component Set,5,BRANCH,AIR LOOP HVAC 11 MAIN BRANCH,AIRLOOPHVAC:OUTDOORAIRSYSTEM,OA SYSTEM 10,NODE 105,NODE 113,Air Nodes
 Component Set,6,BRANCH,AIR LOOP HVAC 11 MAIN BRANCH,AIRLOOPHVAC:UNITARYSYSTEM,UNITARY - DX HEAT PUMP - CYCLING - ELEC REHEAT 10,NODE 113,NODE 106,Air Nodes
 Component Set,7,BRANCH,AIR LOOP HVAC 12 MAIN BRANCH,AIRLOOPHVAC:OUTDOORAIRSYSTEM,OA SYSTEM 11,NODE 114,NODE 122,Air Nodes
 Component Set,8,BRANCH,AIR LOOP HVAC 12 MAIN BRANCH,AIRLOOPHVAC:UNITARYSYSTEM,UNITARY - DX HEAT PUMP - CYCLING - ELEC REHEAT 11,NODE 122,NODE 115,Air Nodes
 Component Set,9,BRANCH,AIR LOOP HVAC 2 MAIN BRANCH,AIRLOOPHVAC:OUTDOORAIRSYSTEM,OA SYSTEM 1,NODE 24,NODE 32,Air Nodes
 Component Set,10,BRANCH,AIR LOOP HVAC 2 MAIN BRANCH,AIRLOOPHVAC:UNITARYSYSTEM,UNITARY - DX HEAT PUMP - CYCLING - ELEC REHEAT 1,NODE 32,NODE 25,Air Nodes
 Component Set,11,BRANCH,AIR LOOP HVAC 3 MAIN BRANCH,AIRLOOPHVAC:OUTDOORAIRSYSTEM,OA SYSTEM 2,NODE 33,NODE 41,Air Nodes
 Component Set,12,BRANCH,AIR LOOP HVAC 3 MAIN BRANCH,AIRLOOPHVAC:UNITARYSYSTEM,UNITARY - DX HEAT PUMP - CYCLING - ELEC REHEAT 2,NODE 41,NODE 34,Air Nodes
 Component Set,13,BRANCH,AIR LOOP HVAC 4 MAIN BRANCH,AIRLOOPHVAC:OUTDOORAIRSYSTEM,OA SYSTEM 3,NODE 42,NODE 50,Air Nodes
 Component Set,14,BRANCH,AIR LOOP HVAC 4 MAIN BRANCH,AIRLOOPHVAC:UNITARYSYSTEM,UNITARY - DX HEAT PUMP - CYCLING - ELEC REHEAT 3,NODE 50,NODE 43,Air Nodes
 Component Set,15,BRANCH,AIR LOOP HVAC 5 MAIN BRANCH,AIRLOOPHVAC:OUTDOORAIRSYSTEM,OA SYSTEM 4,NODE 51,NODE 59,Air Nodes
 Component Set,16,BRANCH,AIR LOOP HVAC 5 MAIN BRANCH,AIRLOOPHVAC:UNITARYSYSTEM,UNITARY - DX HEAT PUMP - CYCLING - ELEC REHEAT 4,NODE 59,NODE 52,Air Nodes
 Component Set,17,BRANCH,AIR LOOP HVAC 6 MAIN BRANCH,AIRLOOPHVAC:OUTDOORAIRSYSTEM,OA SYSTEM 5,NODE 60,NODE 68,Air Nodes
 Component Set,18,BRANCH,AIR LOOP HVAC 6 MAIN BRANCH,AIRLOOPHVAC:UNITARYSYSTEM,UNITARY - DX HEAT PUMP - CYCLING - ELEC REHEAT 5,NODE 68,NODE 61,Air Nodes
 Component Set,19,BRANCH,AIR LOOP HVAC 7 MAIN BRANCH,AIRLOOPHVAC:OUTDOORAIRSYSTEM,OA SYSTEM 6,NODE 69,NODE 77,Air Nodes
 Component Set,20,BRANCH,AIR LOOP HVAC 7 MAIN BRANCH,AIRLOOPHVAC:UNITARYSYSTEM,UNITARY - DX HEAT PUMP - CYCLING - ELEC REHEAT 6,NODE 77,NODE 70,Air Nodes
 Component Set,21,BRANCH,AIR LOOP HVAC 8 MAIN BRANCH,AIRLOOPHVAC:OUTDOORAIRSYSTEM,OA SYSTEM 7,NODE 78,NODE 86,Air Nodes
 Component Set,22,BRANCH,AIR LOOP HVAC 8 MAIN BRANCH,AIRLOOPHVAC:UNITARYSYSTEM,UNITARY - DX HEAT PUMP - CYCLING - ELEC REHEAT 7,NODE 86,NODE 79,Air Nodes
 Component Set,23,BRANCH,AIR LOOP HVAC 9 MAIN BRANCH,AIRLOOPHVAC:OUTDOORAIRSYSTEM,OA SYSTEM 8,NODE 87,NODE 95,Air Nodes
 Component Set,24,BRANCH,AIR LOOP HVAC 9 MAIN BRANCH,AIRLOOPHVAC:UNITARYSYSTEM,UNITARY - DX HEAT PUMP - CYCLING - ELEC REHEAT 8,NODE 95,NODE 88,Air Nodes
 Component Set,25,AIRLOOPHVAC:OUTDOORAIRSYSTEM,OA SYSTEM,OUTDOORAIR:MIXER,OA SYSTEM OUTDOOR AIR MIXER,NODE 18,NODE 20,Air Nodes
 Component Set,26,AIRLOOPHVAC:OUTDOORAIRSYSTEM,OA SYSTEM 9,OUTDOORAIR:MIXER,OA SYSTEM 9 OUTDOOR AIR MIXER,NODE 101,NODE 103,Air Nodes
 Component Set,27,AIRLOOPHVAC:OUTDOORAIRSYSTEM,OA SYSTEM 10,OUTDOORAIR:MIXER,OA SYSTEM 10 OUTDOOR AIR MIXER,NODE 111,NODE 113,Air Nodes
 Component Set,28,AIRLOOPHVAC:OUTDOORAIRSYSTEM,OA SYSTEM 11,OUTDOORAIR:MIXER,OA SYSTEM 11 OUTDOOR AIR MIXER,NODE 120,NODE 122,Air Nodes
 Component Set,29,AIRLOOPHVAC:OUTDOORAIRSYSTEM,OA SYSTEM 1,OUTDOORAIR:MIXER,OA SYSTEM 1 OUTDOOR AIR MIXER,NODE 30,NODE 32,Air Nodes
 Component Set,30,AIRLOOPHVAC:OUTDOORAIRSYSTEM,OA SYSTEM 2,OUTDOORAIR:MIXER,OA SYSTEM 2 OUTDOOR AIR MIXER,NODE 39,NODE 41,Air Nodes
 Component Set,31,AIRLOOPHVAC:OUTDOORAIRSYSTEM,OA SYSTEM 3,OUTDOORAIR:MIXER,OA SYSTEM 3 OUTDOOR AIR MIXER,NODE 48,NODE 50,Air Nodes
 Component Set,32,AIRLOOPHVAC:OUTDOORAIRSYSTEM,OA SYSTEM 4,OUTDOORAIR:MIXER,OA SYSTEM 4 OUTDOOR AIR MIXER,NODE 57,NODE 59,Air Nodes
 Component Set,33,AIRLOOPHVAC:OUTDOORAIRSYSTEM,OA SYSTEM 5,OUTDOORAIR:MIXER,OA SYSTEM 5 OUTDOOR AIR MIXER,NODE 66,NODE 68,Air Nodes
 Component Set,34,AIRLOOPHVAC:OUTDOORAIRSYSTEM,OA SYSTEM 6,OUTDOORAIR:MIXER,OA SYSTEM 6 OUTDOOR AIR MIXER,NODE 75,NODE 77,Air Nodes
 Component Set,35,AIRLOOPHVAC:OUTDOORAIRSYSTEM,OA SYSTEM 7,OUTDOORAIR:MIXER,OA SYSTEM 7 OUTDOOR AIR MIXER,NODE 84,NODE 86,Air Nodes
 Component Set,36,AIRLOOPHVAC:OUTDOORAIRSYSTEM,OA SYSTEM 8,OUTDOORAIR:MIXER,OA SYSTEM 8 OUTDOOR AIR MIXER,NODE 93,NODE 95,Air Nodes
 Component Set,37,AIRLOOPHVAC:UNITARYSYSTEM,UNITARY - DX HEAT PUMP - CYCLING - ELEC REHEAT,FAN:ONOFF,FAN ON OFF 5,NODE 20,UNITARY - DX HEAT PUMP - CYCLING - ELEC REHEAT FAN - COOLING COIL NODE,Air Nodes
 Component Set,38,AIRLOOPHVAC:UNITARYSYSTEM,UNITARY - DX HEAT PUMP - CYCLING - ELEC REHEAT 9,FAN:ONOFF,FAN ON OFF 14,NODE 103,UNITARY - DX HEAT PUMP - CYCLING - ELEC REHEAT 9 FAN - COOLING COIL NODE,Air Nodes
 Component Set,39,AIRLOOPHVAC:UNITARYSYSTEM,UNITARY - DX HEAT PUMP - CYCLING - ELEC REHEAT 10,FAN:ONOFF,FAN ON OFF 15,NODE 113,UNITARY - DX HEAT PUMP - CYCLING - ELEC REHEAT 10 FAN - COOLING COIL NODE,Air Nodes
 Component Set,40,AIRLOOPHVAC:UNITARYSYSTEM,UNITARY - DX HEAT PUMP - CYCLING - ELEC REHEAT 11,FAN:ONOFF,FAN ON OFF 16,NODE 122,UNITARY - DX HEAT PUMP - CYCLING - ELEC REHEAT 11 FAN - COOLING COIL NODE,Air Nodes
 Component Set,41,AIRLOOPHVAC:UNITARYSYSTEM,UNITARY - DX HEAT PUMP - CYCLING - ELEC REHEAT 1,FAN:ONOFF,FAN ON OFF 6,NODE 32,UNITARY - DX HEAT PUMP - CYCLING - ELEC REHEAT 1 FAN - COOLING COIL NODE,Air Nodes
 Component Set,42,AIRLOOPHVAC:UNITARYSYSTEM,UNITARY - DX HEAT PUMP - CYCLING - ELEC REHEAT 2,FAN:ONOFF,FAN ON OFF 7,NODE 41,UNITARY - DX HEAT PUMP - CYCLING - ELEC REHEAT 2 FAN - COOLING COIL NODE,Air Nodes
 Component Set,43,AIRLOOPHVAC:UNITARYSYSTEM,UNITARY - DX HEAT PUMP - CYCLING - ELEC REHEAT 3,FAN:ONOFF,FAN ON OFF 8,NODE 50,UNITARY - DX HEAT PUMP - CYCLING - ELEC REHEAT 3 FAN - COOLING COIL NODE,Air Nodes
 Component Set,44,AIRLOOPHVAC:UNITARYSYSTEM,UNITARY - DX HEAT PUMP - CYCLING - ELEC REHEAT 4,FAN:ONOFF,FAN ON OFF 9,NODE 59,UNITARY - DX HEAT PUMP - CYCLING - ELEC REHEAT 4 FAN - COOLING COIL NODE,Air Nodes
 Component Set,45,AIRLOOPHVAC:UNITARYSYSTEM,UNITARY - DX HEAT PUMP - CYCLING - ELEC REHEAT 5,FAN:ONOFF,FAN ON OFF 10,NODE 68,UNITARY - DX HEAT PUMP - CYCLING - ELEC REHEAT 5 FAN - COOLING COIL NODE,Air Nodes
 Component Set,46,AIRLOOPHVAC:UNITARYSYSTEM,UNITARY - DX HEAT PUMP - CYCLING - ELEC REHEAT 6,FAN:ONOFF,FAN ON OFF 11,NODE 77,UNITARY - DX HEAT PUMP - CYCLING - ELEC REHEAT 6 FAN - COOLING COIL NODE,Air Nodes
 Component Set,47,AIRLOOPHVAC:UNITARYSYSTEM,UNITARY - DX HEAT PUMP - CYCLING - ELEC REHEAT 7,FAN:ONOFF,FAN ON OFF 12,NODE 86,UNITARY - DX HEAT PUMP - CYCLING - ELEC REHEAT 7 FAN - COOLING COIL NODE,Air Nodes
 Component Set,48,AIRLOOPHVAC:UNITARYSYSTEM,UNITARY - DX HEAT PUMP - CYCLING - ELEC REHEAT 8,FAN:ONOFF,FAN ON OFF 13,NODE 95,UNITARY - DX HEAT PUMP - CYCLING - ELEC REHEAT 8 FAN - COOLING COIL NODE,Air Nodes
 Component Set,49,AIRLOOPHVAC:UNITARYSYSTEM,UNITARY - DX HEAT PUMP - CYCLING - ELEC REHEAT,COIL:COOLING:DX:SINGLESPEED,1 SPD DX CLG COIL 4,UNITARY - DX HEAT PUMP - CYCLING - ELEC REHEAT FAN - COOLING COIL NODE,UNITARY - DX HEAT PUMP - CYCLING - ELEC REHEAT COOLING COIL - HEATING COIL NODE,Air Nodes
 Component Set,50,AIRLOOPHVAC:UNITARYSYSTEM,UNITARY - DX HEAT PUMP - CYCLING - ELEC REHEAT 9,COIL:COOLING:DX:SINGLESPEED,1 SPD DX CLG COIL 13,UNITARY - DX HEAT PUMP - CYCLING - ELEC REHEAT 9 FAN - COOLING COIL NODE,UNITARY - DX HEAT PUMP - CYCLING - ELEC REHEAT 9 COOLING COIL - HEATING COIL NODE,Air Nodes
 Component Set,51,AIRLOOPHVAC:UNITARYSYSTEM,UNITARY - DX HEAT PUMP - CYCLING - ELEC REHEAT 10,COIL:COOLING:DX:SINGLESPEED,1 SPD DX CLG COIL 14,UNITARY - DX HEAT PUMP - CYCLING - ELEC REHEAT 10 FAN - COOLING COIL NODE,UNITARY - DX HEAT PUMP - CYCLING - ELEC REHEAT 10 COOLING COIL - HEATING COIL NODE,Air Nodes
 Component Set,52,AIRLOOPHVAC:UNITARYSYSTEM,UNITARY - DX HEAT PUMP - CYCLING - ELEC REHEAT 11,COIL:COOLING:DX:SINGLESPEED,1 SPD DX CLG COIL 15,UNITARY - DX HEAT PUMP - CYCLING - ELEC REHEAT 11 FAN - COOLING COIL NODE,UNITARY - DX HEAT PUMP - CYCLING - ELEC REHEAT 11 COOLING COIL - HEATING COIL NODE,Air Nodes
 Component Set,53,AIRLOOPHVAC:UNITARYSYSTEM,UNITARY - DX HEAT PUMP - CYCLING - ELEC REHEAT 1,COIL:COOLING:DX:SINGLESPEED,1 SPD DX CLG COIL 5,UNITARY - DX HEAT PUMP - CYCLING - ELEC REHEAT 1 FAN - COOLING COIL NODE,UNITARY - DX HEAT PUMP - CYCLING - ELEC REHEAT 1 COOLING COIL - HEATING COIL NODE,Air Nodes
 Component Set,54,AIRLOOPHVAC:UNITARYSYSTEM,UNITARY - DX HEAT PUMP - CYCLING - ELEC REHEAT 2,COIL:COOLING:DX:SINGLESPEED,1 SPD DX CLG COIL 6,UNITARY - DX HEAT PUMP - CYCLING - ELEC REHEAT 2 FAN - COOLING COIL NODE,UNITARY - DX HEAT PUMP - CYCLING - ELEC REHEAT 2 COOLING COIL - HEATING COIL NODE,Air Nodes
 Component Set,55,AIRLOOPHVAC:UNITARYSYSTEM,UNITARY - DX HEAT PUMP - CYCLING - ELEC REHEAT 3,COIL:COOLING:DX:SINGLESPEED,1 SPD DX CLG COIL 7,UNITARY - DX HEAT PUMP - CYCLING - ELEC REHEAT 3 FAN - COOLING COIL NODE,UNITARY - DX HEAT PUMP - CYCLING - ELEC REHEAT 3 COOLING COIL - HEATING COIL NODE,Air Nodes
 Component Set,56,AIRLOOPHVAC:UNITARYSYSTEM,UNITARY - DX HEAT PUMP - CYCLING - ELEC REHEAT 4,COIL:COOLING:DX:SINGLESPEED,1 SPD DX CLG COIL 8,UNITARY - DX HEAT PUMP - CYCLING - ELEC REHEAT 4 FAN - COOLING COIL NODE,UNITARY - DX HEAT PUMP - CYCLING - ELEC REHEAT 4 COOLING COIL - HEATING COIL NODE,Air Nodes
 Component Set,57,AIRLOOPHVAC:UNITARYSYSTEM,UNITARY - DX HEAT PUMP - CYCLING - ELEC REHEAT 5,COIL:COOLING:DX:SINGLESPEED,1 SPD DX CLG COIL 9,UNITARY - DX HEAT PUMP - CYCLING - ELEC REHEAT 5 FAN - COOLING COIL NODE,UNITARY - DX HEAT PUMP - CYCLING - ELEC REHEAT 5 COOLING COIL - HEATING COIL NODE,Air Nodes
 Component Set,58,AIRLOOPHVAC:UNITARYSYSTEM,UNITARY - DX HEAT PUMP - CYCLING - ELEC REHEAT 6,COIL:COOLING:DX:SINGLESPEED,1 SPD DX CLG COIL 10,UNITARY - DX HEAT PUMP - CYCLING - ELEC REHEAT 6 FAN - COOLING COIL NODE,UNITARY - DX HEAT PUMP - CYCLING - ELEC REHEAT 6 COOLING COIL - HEATING COIL NODE,Air Nodes
 Component Set,59,AIRLOOPHVAC:UNITARYSYSTEM,UNITARY - DX HEAT PUMP - CYCLING - ELEC REHEAT 7,COIL:COOLING:DX:SINGLESPEED,1 SPD DX CLG COIL 11,UNITARY - DX HEAT PUMP - CYCLING - ELEC REHEAT 7 FAN - COOLING COIL NODE,UNITARY - DX HEAT PUMP - CYCLING - ELEC REHEAT 7 COOLING COIL - HEATING COIL NODE,Air Nodes
 Component Set,60,AIRLOOPHVAC:UNITARYSYSTEM,UNITARY - DX HEAT PUMP - CYCLING - ELEC REHEAT 8,COIL:COOLING:DX:SINGLESPEED,1 SPD DX CLG COIL 12,UNITARY - DX HEAT PUMP - CYCLING - ELEC REHEAT 8 FAN - COOLING COIL NODE,UNITARY - DX HEAT PUMP - CYCLING - ELEC REHEAT 8 COOLING COIL - HEATING COIL NODE,Air Nodes
 Component Set,61,AIRLOOPHVAC:UNITARYSYSTEM,UNITARY - DX HEAT PUMP - CYCLING - ELEC REHEAT,COIL:HEATING:DX:SINGLESPEED,1 SPD DX HTG COIL 3,UNITARY - DX HEAT PUMP - CYCLING - ELEC REHEAT COOLING COIL - HEATING COIL NODE,UNITARY - DX HEAT PUMP - CYCLING - ELEC REHEAT HEATING COIL - SUPPLEMENTAL COIL NODE,Air Nodes
 Component Set,62,AIRLOOPHVAC:UNITARYSYSTEM,UNITARY - DX HEAT PUMP - CYCLING - ELEC REHEAT 9,COIL:HEATING:DX:SINGLESPEED,1 SPD DX HTG COIL 12,UNITARY - DX HEAT PUMP - CYCLING - ELEC REHEAT 9 COOLING COIL - HEATING COIL NODE,UNITARY - DX HEAT PUMP - CYCLING - ELEC REHEAT 9 HEATING COIL - SUPPLEMENTAL COIL NODE,Air Nodes
 Component Set,63,AIRLOOPHVAC:UNITARYSYSTEM,UNITARY - DX HEAT PUMP - CYCLING - ELEC REHEAT 10,COIL:HEATING:DX:SINGLESPEED,1 SPD DX HTG COIL 13,UNITARY - DX HEAT PUMP - CYCLING - ELEC REHEAT 10 COOLING COIL - HEATING COIL NODE,UNITARY - DX HEAT PUMP - CYCLING - ELEC REHEAT 10 HEATING COIL - SUPPLEMENTAL COIL NODE,Air Nodes
 Component Set,64,AIRLOOPHVAC:UNITARYSYSTEM,UNITARY - DX HEAT PUMP - CYCLING - ELEC REHEAT 11,COIL:HEATING:DX:SINGLESPEED,1 SPD DX HTG COIL 14,UNITARY - DX HEAT PUMP - CYCLING - ELEC REHEAT 11 COOLING COIL - HEATING COIL NODE,UNITARY - DX HEAT PUMP - CYCLING - ELEC REHEAT 11 HEATING COIL - SUPPLEMENTAL COIL NODE,Air Nodes
 Component Set,65,AIRLOOPHVAC:UNITARYSYSTEM,UNITARY - DX HEAT PUMP - CYCLING - ELEC REHEAT 1,COIL:HEATING:DX:SINGLESPEED,1 SPD DX HTG COIL 4,UNITARY - DX HEAT PUMP - CYCLING - ELEC REHEAT 1 COOLING COIL - HEATING COIL NODE,UNITARY - DX HEAT PUMP - CYCLING - ELEC REHEAT 1 HEATING COIL - SUPPLEMENTAL COIL NODE,Air Nodes
 Component Set,66,AIRLOOPHVAC:UNITARYSYSTEM,UNITARY - DX HEAT PUMP - CYCLING - ELEC REHEAT 2,COIL:HEATING:DX:SINGLESPEED,1 SPD DX HTG COIL 5,UNITARY - DX HEAT PUMP - CYCLING - ELEC REHEAT 2 COOLING COIL - HEATING COIL NODE,UNITARY - DX HEAT PUMP - CYCLING - ELEC REHEAT 2 HEATING COIL - SUPPLEMENTAL COIL NODE,Air Nodes
 Component Set,67,AIRLOOPHVAC:UNITARYSYSTEM,UNITARY - DX HEAT PUMP - CYCLING - ELEC REHEAT 3,COIL:HEATING:DX:SINGLESPEED,1 SPD DX HTG COIL 6,UNITARY - DX HEAT PUMP - CYCLING - ELEC REHEAT 3 COOLING COIL - HEATING COIL NODE,UNITARY - DX HEAT PUMP - CYCLING - ELEC REHEAT 3 HEATING COIL - SUPPLEMENTAL COIL NODE,Air Nodes
 Component Set,68,AIRLOOPHVAC:UNITARYSYSTEM,UNITARY - DX HEAT PUMP - CYCLING - ELEC REHEAT 4,COIL:HEATING:DX:SINGLESPEED,1 SPD DX HTG COIL 7,UNITARY - DX HEAT PUMP - CYCLING - ELEC REHEAT 4 COOLING COIL - HEATING COIL NODE,UNITARY - DX HEAT PUMP - CYCLING - ELEC REHEAT 4 HEATING COIL - SUPPLEMENTAL COIL NODE,Air Nodes
 Component Set,69,AIRLOOPHVAC:UNITARYSYSTEM,UNITARY - DX HEAT PUMP - CYCLING - ELEC REHEAT 5,COIL:HEATING:DX:SINGLESPEED,1 SPD DX HTG COIL 8,UNITARY - DX HEAT PUMP - CYCLING - ELEC REHEAT 5 COOLING COIL - HEATING COIL NODE,UNITARY - DX HEAT PUMP - CYCLING - ELEC REHEAT 5 HEATING COIL - SUPPLEMENTAL COIL NODE,Air Nodes
 Component Set,70,AIRLOOPHVAC:UNITARYSYSTEM,UNITARY - DX HEAT PUMP - CYCLING - ELEC REHEAT 6,COIL:HEATING:DX:SINGLESPEED,1 SPD DX HTG COIL 9,UNITARY - DX HEAT PUMP - CYCLING - ELEC REHEAT 6 COOLING COIL - HEATING COIL NODE,UNITARY - DX HEAT PUMP - CYCLING - ELEC REHEAT 6 HEATING COIL - SUPPLEMENTAL COIL NODE,Air Nodes
 Component Set,71,AIRLOOPHVAC:UNITARYSYSTEM,UNITARY - DX HEAT PUMP - CYCLING - ELEC REHEAT 7,COIL:HEATING:DX:SINGLESPEED,1 SPD DX HTG COIL 10,UNITARY - DX HEAT PUMP - CYCLING - ELEC REHEAT 7 COOLING COIL - HEATING COIL NODE,UNITARY - DX HEAT PUMP - CYCLING - ELEC REHEAT 7 HEATING COIL - SUPPLEMENTAL COIL NODE,Air Nodes
 Component Set,72,AIRLOOPHVAC:UNITARYSYSTEM,UNITARY - DX HEAT PUMP - CYCLING - ELEC REHEAT 8,COIL:HEATING:DX:SINGLESPEED,1 SPD DX HTG COIL 11,UNITARY - DX HEAT PUMP - CYCLING - ELEC REHEAT 8 COOLING COIL - HEATING COIL NODE,UNITARY - DX HEAT PUMP - CYCLING - ELEC REHEAT 8 HEATING COIL - SUPPLEMENTAL COIL NODE,Air Nodes
 Component Set,73,AIRLOOPHVAC:UNITARYSYSTEM,UNITARY - DX HEAT PUMP - CYCLING - ELEC REHEAT,COIL:HEATING:ELECTRIC,ELEC HTG COIL 5,UNITARY - DX HEAT PUMP - CYCLING - ELEC REHEAT HEATING COIL - SUPPLEMENTAL COIL NODE,NODE 14,Air Nodes
 Component Set,74,AIRLOOPHVAC:UNITARYSYSTEM,UNITARY - DX HEAT PUMP - CYCLING - ELEC REHEAT 9,COIL:HEATING:ELECTRIC,ELEC HTG COIL 14,UNITARY - DX HEAT PUMP - CYCLING - ELEC REHEAT 9 HEATING COIL - SUPPLEMENTAL COIL NODE,NODE 97,Air Nodes
 Component Set,75,AIRLOOPHVAC:UNITARYSYSTEM,UNITARY - DX HEAT PUMP - CYCLING - ELEC REHEAT 10,COIL:HEATING:ELECTRIC,ELEC HTG COIL 15,UNITARY - DX HEAT PUMP - CYCLING - ELEC REHEAT 10 HEATING COIL - SUPPLEMENTAL COIL NODE,NODE 106,Air Nodes
 Component Set,76,AIRLOOPHVAC:UNITARYSYSTEM,UNITARY - DX HEAT PUMP - CYCLING - ELEC REHEAT 11,COIL:HEATING:ELECTRIC,ELEC HTG COIL 16,UNITARY - DX HEAT PUMP - CYCLING - ELEC REHEAT 11 HEATING COIL - SUPPLEMENTAL COIL NODE,NODE 115,Air Nodes
 Component Set,77,AIRLOOPHVAC:UNITARYSYSTEM,UNITARY - DX HEAT PUMP - CYCLING - ELEC REHEAT 1,COIL:HEATING:ELECTRIC,ELEC HTG COIL 6,UNITARY - DX HEAT PUMP - CYCLING - ELEC REHEAT 1 HEATING COIL - SUPPLEMENTAL COIL NODE,NODE 25,Air Nodes
 Component Set,78,AIRLOOPHVAC:UNITARYSYSTEM,UNITARY - DX HEAT PUMP - CYCLING - ELEC REHEAT 2,COIL:HEATING:ELECTRIC,ELEC HTG COIL 7,UNITARY - DX HEAT PUMP - CYCLING - ELEC REHEAT 2 HEATING COIL - SUPPLEMENTAL COIL NODE,NODE 34,Air Nodes
 Component Set,79,AIRLOOPHVAC:UNITARYSYSTEM,UNITARY - DX HEAT PUMP - CYCLING - ELEC REHEAT 3,COIL:HEATING:ELECTRIC,ELEC HTG COIL 8,UNITARY - DX HEAT PUMP - CYCLING - ELEC REHEAT 3 HEATING COIL - SUPPLEMENTAL COIL NODE,NODE 43,Air Nodes
 Component Set,80,AIRLOOPHVAC:UNITARYSYSTEM,UNITARY - DX HEAT PUMP - CYCLING - ELEC REHEAT 4,COIL:HEATING:ELECTRIC,ELEC HTG COIL 9,UNITARY - DX HEAT PUMP - CYCLING - ELEC REHEAT 4 HEATING COIL - SUPPLEMENTAL COIL NODE,NODE 52,Air Nodes
 Component Set,81,AIRLOOPHVAC:UNITARYSYSTEM,UNITARY - DX HEAT PUMP - CYCLING - ELEC REHEAT 5,COIL:HEATING:ELECTRIC,ELEC HTG COIL 10,UNITARY - DX HEAT PUMP - CYCLING - ELEC REHEAT 5 HEATING COIL - SUPPLEMENTAL COIL NODE,NODE 61,Air Nodes
 Component Set,82,AIRLOOPHVAC:UNITARYSYSTEM,UNITARY - DX HEAT PUMP - CYCLING - ELEC REHEAT 6,COIL:HEATING:ELECTRIC,ELEC HTG COIL 11,UNITARY - DX HEAT PUMP - CYCLING - ELEC REHEAT 6 HEATING COIL - SUPPLEMENTAL COIL NODE,NODE 70,Air Nodes
 Component Set,83,AIRLOOPHVAC:UNITARYSYSTEM,UNITARY - DX HEAT PUMP - CYCLING - ELEC REHEAT 7,COIL:HEATING:ELECTRIC,ELEC HTG COIL 12,UNITARY - DX HEAT PUMP - CYCLING - ELEC REHEAT 7 HEATING COIL - SUPPLEMENTAL COIL NODE,NODE 79,Air Nodes
 Component Set,84,AIRLOOPHVAC:UNITARYSYSTEM,UNITARY - DX HEAT PUMP - CYCLING - ELEC REHEAT 8,COIL:HEATING:ELECTRIC,ELEC HTG COIL 13,UNITARY - DX HEAT PUMP - CYCLING - ELEC REHEAT 8 HEATING COIL - SUPPLEMENTAL COIL NODE,NODE 88,Air Nodes
! ===============================================================
! <# Plant Loops>,<Number of Plant Loops>
 #Plant Loops,0
! <Plant Loop>,<Plant Loop Name>,<Loop Type>,<Inlet Node Name>,<Outlet Node Name>,<Branch List>,<Connector List>
! <Plant Loop Connector>,<Connector Type>,<Connector Name>,<Loop Name>,<Loop Type>,<Number of Inlets/Outlets>
! <Plant Loop Connector Branches>,<Connector Node Count>,<Connector Type>,<Connector Name>,<Inlet Branch>,<Outlet Branch>,<Loop Name>,<Loop Type>
! <Plant Loop Connector Nodes>,<Connector Node Count>,<Connector Type>,<Connector Name>,<Inlet Node>,<Outlet Node>,<Loop Name>,<Loop Type>
! <Plant Loop Supply Connection>,<Plant Loop Name>,<Supply Side Outlet Node Name>,<Demand Side Inlet Node Name>
! <Plant Loop Return Connection>,<Plant Loop Name>,<Demand Side Outlet Node Name>,<Supply Side Inlet Node Name>
! ===============================================================
! <# Condenser Loops>,<Number of Condenser Loops>
 #Condenser Loops,0
! <Condenser Loop>,<Condenser Loop Name>,<Loop Type>,<Inlet Node Name>,<Outlet Node Name>,<Branch List>,<Connector List>
! <Condenser Loop Connector>,<Connector Type>,<Connector Name>,<Loop Name>,<Loop Type>,<Number of Inlets/Outlets>
! <Condenser Loop Connector Branches>,<Connector Node Count>,<Connector Type>,<Connector Name>,<Inlet Branch>,<Outlet Branch>,<Loop Name>,<Loop Type>
! <Condenser Loop Connector Nodes>,<Connector Node Count>,<Connector Type>,<Connector Name>,<Inlet Node>,<Outlet Node>,<Loop Name>,<Loop Type>
! <Condenser Loop Supply Connection>,<Condenser Loop Name>,<Supply Side Outlet Node Name>,<Demand Side Inlet Node Name>
! <Condenser Loop Return Connection>,<Condenser Loop Name>,<Demand Side Outlet Node Name>,<Supply Side Inlet Node Name>
! ===============================================================
! <# Controlled Zones>,<Number of Controlled Zones>
 #Controlled Zones,12
! <Controlled Zone>,<Controlled Zone Name>,<Equip List Name>,<Control List Name>,<Zone Node Name>,<# Inlet Nodes>,<# Exhaust Nodes>,<# Return Nodes>
! <Controlled Zone Inlet>,<Inlet Node Count>,<Controlled Zone Name>,<Supply Air Inlet Node Name>,<SD Sys:Cooling/Heating [DD:Cooling] Inlet Node Name>,<DD Sys:Heating Inlet Node Name>
! <Controlled Zone Exhaust>,<Exhaust Node Count>,<Controlled Zone Name>,<Exhaust Air Node Name>
 Controlled Zone,01_A1,01_A1 EQUIPMENT LIST,,NODE 2,1,0,1
   Controlled Zone Inlet,1,01_A1,NODE 17,NODE 17,N/A
   Controlled Zone Return,1,01_A1,NODE 21
 Controlled Zone,01_A2,01_A2 EQUIPMENT LIST,,NODE 1,2,1,1
   Controlled Zone Inlet,1,01_A2,NODE 23,Undefined,N/A
   Controlled Zone Inlet,2,01_A2,NODE 28,NODE 28,N/A
   Controlled Zone Exhaust,1,01_A2,NODE 22
   Controlled Zone Return,1,01_A2,NODE 29
 Controlled Zone,01_B2,01_B2 EQUIPMENT LIST,,NODE 4,1,0,1
   Controlled Zone Inlet,1,01_B2,NODE 37,NODE 37,N/A
   Controlled Zone Return,1,01_B2,NODE 38
 Controlled Zone,01_C1,01_C1 EQUIPMENT LIST,,NODE 3,1,0,1
   Controlled Zone Inlet,1,01_C1,NODE 46,NODE 46,N/A
   Controlled Zone Return,1,01_C1,NODE 47
 Controlled Zone,02_A1,02_A1 EQUIPMENT LIST,,NODE 6,1,0,1
   Controlled Zone Inlet,1,02_A1,NODE 55,NODE 55,N/A
   Controlled Zone Return,1,02_A1,NODE 56
 Controlled Zone,02_A2,02_A2 EQUIPMENT LIST,,NODE 5,1,0,1
   Controlled Zone Inlet,1,02_A2,NODE 64,NODE 64,N/A
   Controlled Zone Return,1,02_A2,NODE 65
 Controlled Zone,02_B2,02_B2 EQUIPMENT LIST,,NODE 8,1,0,1
   Controlled Zone Inlet,1,02_B2,NODE 73,NODE 73,N/A
   Controlled Zone Return,1,02_B2,NODE 74
 Controlled Zone,02_C1,02_C1 EQUIPMENT LIST,,NODE 7,1,0,1
   Controlled Zone Inlet,1,02_C1,NODE 82,NODE 82,N/A
   Controlled Zone Return,1,02_C1,NODE 83
 Controlled Zone,03_A1,03_A1 EQUIPMENT LIST,,NODE 10,1,0,1
   Controlled Zone Inlet,1,03_A1,NODE 91,NODE 91,N/A
   Controlled Zone Return,1,03_A1,NODE 92
 Controlled Zone,03_A2,03_A2 EQUIPMENT LIST,,NODE 9,1,0,1
   Controlled Zone Inlet,1,03_A2,NODE 100,NODE 100,N/A
   Controlled Zone Return,1,03_A2,NODE 104
 Controlled Zone,03_B2,03_B2 EQUIPMENT LIST,,NODE 12,1,0,1
   Controlled Zone Inlet,1,03_B2,NODE 109,NODE 109,N/A
   Controlled Zone Return,1,03_B2,NODE 110
 Controlled Zone,03_C1,03_C1 EQUIPMENT LIST,,NODE 11,1,0,1
   Controlled Zone Inlet,1,03_C1,NODE 118,NODE 118,N/A
   Controlled Zone Return,1,03_C1,NODE 119
! ===============================================================
! <#Zone Equipment Lists>,<Number of Zone Equipment Lists>
 #Zone Equipment Lists,12
! <Zone Equipment List>,<Zone Equipment List Count>,<Zone Equipment List Name>,<Zone Name>,<Number of Components>
! <Zone Equipment Component>,<Component Count>,<Component Type>,<Component Name>,<Zone Name>,<Heating Priority>,<Cooling Priority>
 Zone Equipment List,1,01_A1 EQUIPMENT LIST,01_A1,1
   Zone Equipment Component,1,AIRTERMINAL:SINGLEDUCT:UNCONTROLLED,DIFFUSER,01_A1,1,1
 Zone Equipment List,2,01_A2 EQUIPMENT LIST,01_A2,1
   Zone Equipment Component,1,AIRTERMINAL:SINGLEDUCT:UNCONTROLLED,DIFFUSER 1,01_A2,1,1
 Zone Equipment List,3,01_B2 EQUIPMENT LIST,01_B2,1
   Zone Equipment Component,1,AIRTERMINAL:SINGLEDUCT:UNCONTROLLED,DIFFUSER 2,01_B2,1,1
 Zone Equipment List,4,01_C1 EQUIPMENT LIST,01_C1,1
   Zone Equipment Component,1,AIRTERMINAL:SINGLEDUCT:UNCONTROLLED,DIFFUSER 3,01_C1,1,1
 Zone Equipment List,5,02_A1 EQUIPMENT LIST,02_A1,1
   Zone Equipment Component,1,AIRTERMINAL:SINGLEDUCT:UNCONTROLLED,DIFFUSER 4,02_A1,1,1
 Zone Equipment List,6,02_A2 EQUIPMENT LIST,02_A2,1
   Zone Equipment Component,1,AIRTERMINAL:SINGLEDUCT:UNCONTROLLED,DIFFUSER 5,02_A2,1,1
 Zone Equipment List,7,02_B2 EQUIPMENT LIST,02_B2,1
   Zone Equipment Component,1,AIRTERMINAL:SINGLEDUCT:UNCONTROLLED,DIFFUSER 11,02_B2,1,1
 Zone Equipment List,8,02_C1 EQUIPMENT LIST,02_C1,1
   Zone Equipment Component,1,AIRTERMINAL:SINGLEDUCT:UNCONTROLLED,DIFFUSER 6,02_C1,1,1
 Zone Equipment List,9,03_A1 EQUIPMENT LIST,03_A1,1
   Zone Equipment Component,1,AIRTERMINAL:SINGLEDUCT:UNCONTROLLED,DIFFUSER 7,03_A1,1,1
 Zone Equipment List,10,03_A2 EQUIPMENT LIST,03_A2,1
   Zone Equipment Component,1,AIRTERMINAL:SINGLEDUCT:UNCONTROLLED,DIFFUSER 8,03_A2,1,1
 Zone Equipment List,11,03_B2 EQUIPMENT LIST,03_B2,1
   Zone Equipment Component,1,AIRTERMINAL:SINGLEDUCT:UNCONTROLLED,DIFFUSER 9,03_B2,1,1
 Zone Equipment List,12,03_C1 EQUIPMENT LIST,03_C1,1
   Zone Equipment Component,1,AIRTERMINAL:SINGLEDUCT:UNCONTROLLED,DIFFUSER 10,03_C1,1,1
! ===============================================================
! <#AirLoopHVACs>,<Number of AirLoopHVACs>
 #AirLoopHVACs,12
! <AirLoopHVAC>,<Air Loop Name>,<# Return Nodes>,<# Supply Nodes>,<# Zones Cooled>,<# Zones Heated>,<Outdoor Air Used>
! <AirLoop Return Connections>,<Connection Count>,<AirLoopHVAC Name>,<Zn Eqp Return Node #>,<Zn Eqp Return Node Name>,<AirLoop Return Node #>,<Air Loop Return Node Name>
! <AirLoop Supply Connections>,<Connection Count>,<AirLoopHVAC Name>,<Zn Eqp Supply Node #>,<Zn Eqp Supply Node Name>,<AirLoop Supply Node #>,<Air Loop Supply Node Name>
! <Cooled Zone Info>,<Cooled Zone Count>,<Cooled Zone Name>,<Cooled Zone Inlet Node #>,<Cooled Zone Inlet Node Name>,<AirLoopHVAC Name>
! <Heated Zone Info>,<Heated Zone Count>,<Heated Zone Name>,<Heated Zone Inlet Node #>,<Heated Zone Inlet Node Name>,<AirLoopHVAC Name>
! <Outdoor Air Connections>,<OA Inlet Node #>,<OA Return Air Inlet Node Name>,<OA Outlet Node #>,<OA Mixed Air Outlet Node Name>,<AirLoopHVAC Name>
! <AirLoopHVAC Connector>,<Connector Type>,<Connector Name>,<Loop Name>,<Loop Type>,<Number of Inlets/Outlets>
! <AirLoopHVAC Connector Branches>,<Connector Node Count>,<Connector Type>,<Connector Name>,<Inlet Branch>,<Outlet Branch>,<Loop Name>,<Loop Type>
! <AirLoopHVAC Connector Nodes>,<Connector Node Count>,<Connector Type>,<Connector Name>,<Inlet Node>,<Outlet Node>,<Loop Name>,<Loop Type>
 AirLoopHVAC,AIR LOOP HVAC 1,1,1,1,0,Yes
   AirLoop Return Connections,1,AIR LOOP HVAC 1,87,NODE 16,39,NODE 13
   AirLoop Supply Connections,1,AIR LOOP HVAC 1,16,NODE 15,15,NODE 14
   Cooled Zone Info,1,01_A1,1,NODE 17,AIR LOOP HVAC 1
   Outdoor Air Connections,39,NODE 13,40,NODE 20,AIR LOOP HVAC 1
 AirLoopHVAC,AIR LOOP HVAC 10,1,1,1,0,Yes
   AirLoop Return Connections,1,AIR LOOP HVAC 10,88,NODE 99,41,NODE 96
   AirLoop Supply Connections,1,AIR LOOP HVAC 10,18,NODE 98,17,NODE 97
   Cooled Zone Info,1,03_A2,12,NODE 100,AIR LOOP HVAC 10
   Outdoor Air Connections,41,NODE 96,42,NODE 103,AIR LOOP HVAC 10
 AirLoopHVAC,AIR LOOP HVAC 11,1,1,1,0,Yes
   AirLoop Return Connections,1,AIR LOOP HVAC 11,89,NODE 108,43,NODE 105
   AirLoop Supply Connections,1,AIR LOOP HVAC 11,20,NODE 107,19,NODE 106
   Cooled Zone Info,1,03_B2,13,NODE 109,AIR LOOP HVAC 11
   Outdoor Air Connections,43,NODE 105,44,NODE 113,AIR LOOP HVAC 11
 AirLoopHVAC,AIR LOOP HVAC 12,1,1,1,0,Yes
   AirLoop Return Connections,1,AIR LOOP HVAC 12,90,NODE 117,45,NODE 114
   AirLoop Supply Connections,1,AIR LOOP HVAC 12,22,NODE 116,21,NODE 115
   Cooled Zone Info,1,03_C1,14,NODE 118,AIR LOOP HVAC 12
   Outdoor Air Connections,45,NODE 114,46,NODE 122,AIR LOOP HVAC 12
 AirLoopHVAC,AIR LOOP HVAC 2,1,1,1,0,Yes
   AirLoop Return Connections,1,AIR LOOP HVAC 2,91,NODE 27,47,NODE 24
   AirLoop Supply Connections,1,AIR LOOP HVAC 2,24,NODE 26,23,NODE 25
   Cooled Zone Info,1,01_A2,3,NODE 28,AIR LOOP HVAC 2
   Outdoor Air Connections,47,NODE 24,48,NODE 32,AIR LOOP HVAC 2
 AirLoopHVAC,AIR LOOP HVAC 3,1,1,1,0,Yes
   AirLoop Return Connections,1,AIR LOOP HVAC 3,92,NODE 36,49,NODE 33
   AirLoop Supply Connections,1,AIR LOOP HVAC 3,26,NODE 35,25,NODE 34
   Cooled Zone Info,1,01_B2,5,NODE 37,AIR LOOP HVAC 3
   Outdoor Air Connections,49,NODE 33,50,NODE 41,AIR LOOP HVAC 3
 AirLoopHVAC,AIR LOOP HVAC 4,1,1,1,0,Yes
   AirLoop Return Connections,1,AIR LOOP HVAC 4,93,NODE 45,51,NODE 42
   AirLoop Supply Connections,1,AIR LOOP HVAC 4,28,NODE 44,27,NODE 43
   Cooled Zone Info,1,01_C1,6,NODE 46,AIR LOOP HVAC 4
   Outdoor Air Connections,51,NODE 42,52,NODE 50,AIR LOOP HVAC 4
 AirLoopHVAC,AIR LOOP HVAC 5,1,1,1,0,Yes
   AirLoop Return Connections,1,AIR LOOP HVAC 5,94,NODE 54,53,NODE 51
   AirLoop Supply Connections,1,AIR LOOP HVAC 5,30,NODE 53,29,NODE 52
   Cooled Zone Info,1,02_A1,7,NODE 55,AIR LOOP HVAC 5
   Outdoor Air Connections,53,NODE 51,54,NODE 59,AIR LOOP HVAC 5
 AirLoopHVAC,AIR LOOP HVAC 6,1,1,1,0,Yes
   AirLoop Return Connections,1,AIR LOOP HVAC 6,95,NODE 63,55,NODE 60
   AirLoop Supply Connections,1,AIR LOOP HVAC 6,32,NODE 62,31,NODE 61
   Cooled Zone Info,1,02_A2,8,NODE 64,AIR LOOP HVAC 6
   Outdoor Air Connections,55,NODE 60,56,NODE 68,AIR LOOP HVAC 6
 AirLoopHVAC,AIR LOOP HVAC 7,1,1,1,0,Yes
   AirLoop Return Connections,1,AIR LOOP HVAC 7,96,NODE 72,57,NODE 69
   AirLoop Supply Connections,1,AIR LOOP HVAC 7,34,NODE 71,33,NODE 70
   Cooled Zone Info,1,02_B2,9,NODE 73,AIR LOOP HVAC 7
   Outdoor Air Connections,57,NODE 69,58,NODE 77,AIR LOOP HVAC 7
 AirLoopHVAC,AIR LOOP HVAC 8,1,1,1,0,Yes
   AirLoop Return Connections,1,AIR LOOP HVAC 8,97,NODE 81,59,NODE 78
   AirLoop Supply Connections,1,AIR LOOP HVAC 8,36,NODE 80,35,NODE 79
   Cooled Zone Info,1,02_C1,10,NODE 82,AIR LOOP HVAC 8
   Outdoor Air Connections,59,NODE 78,60,NODE 86,AIR LOOP HVAC 8
 AirLoopHVAC,AIR LOOP HVAC 9,1,1,1,0,Yes
   AirLoop Return Connections,1,AIR LOOP HVAC 9,98,NODE 90,61,NODE 87
   AirLoop Supply Connections,1,AIR LOOP HVAC 9,38,NODE 89,37,NODE 88
   Cooled Zone Info,1,03_A1,11,NODE 91,AIR LOOP HVAC 9
   Outdoor Air Connections,61,NODE 87,62,NODE 95,AIR LOOP HVAC 9
! ===============================================================
! <#Parent Node Connections>,<Number of Parent Node Connections>
 #Parent Node Connections,132
! <Parent Node Connection>,<Node Name>,<Node ObjectType>,<Node ObjectName>,<Node ConnectionType>,<Node FluidStream>
 Parent Node Connection,NODE 13,BRANCH,AIR LOOP HVAC 1 MAIN BRANCH,Inlet,1
 Parent Node Connection,NODE 20,BRANCH,AIR LOOP HVAC 1 MAIN BRANCH,Internal,1
 Parent Node Connection,NODE 14,BRANCH,AIR LOOP HVAC 1 MAIN BRANCH,Outlet,1
 Parent Node Connection,NODE 96,BRANCH,AIR LOOP HVAC 10 MAIN BRANCH,Inlet,1
 Parent Node Connection,NODE 103,BRANCH,AIR LOOP HVAC 10 MAIN BRANCH,Internal,1
 Parent Node Connection,NODE 97,BRANCH,AIR LOOP HVAC 10 MAIN BRANCH,Outlet,1
 Parent Node Connection,NODE 105,BRANCH,AIR LOOP HVAC 11 MAIN BRANCH,Inlet,1
 Parent Node Connection,NODE 113,BRANCH,AIR LOOP HVAC 11 MAIN BRANCH,Internal,1
 Parent Node Connection,NODE 106,BRANCH,AIR LOOP HVAC 11 MAIN BRANCH,Outlet,1
 Parent Node Connection,NODE 114,BRANCH,AIR LOOP HVAC 12 MAIN BRANCH,Inlet,1
 Parent Node Connection,NODE 122,BRANCH,AIR LOOP HVAC 12 MAIN BRANCH,Internal,1
 Parent Node Connection,NODE 115,BRANCH,AIR LOOP HVAC 12 MAIN BRANCH,Outlet,1
 Parent Node Connection,NODE 24,BRANCH,AIR LOOP HVAC 2 MAIN BRANCH,Inlet,1
 Parent Node Connection,NODE 32,BRANCH,AIR LOOP HVAC 2 MAIN BRANCH,Internal,1
 Parent Node Connection,NODE 25,BRANCH,AIR LOOP HVAC 2 MAIN BRANCH,Outlet,1
 Parent Node Connection,NODE 33,BRANCH,AIR LOOP HVAC 3 MAIN BRANCH,Inlet,1
 Parent Node Connection,NODE 41,BRANCH,AIR LOOP HVAC 3 MAIN BRANCH,Internal,1
 Parent Node Connection,NODE 34,BRANCH,AIR LOOP HVAC 3 MAIN BRANCH,Outlet,1
 Parent Node Connection,NODE 42,BRANCH,AIR LOOP HVAC 4 MAIN BRANCH,Inlet,1
 Parent Node Connection,NODE 50,BRANCH,AIR LOOP HVAC 4 MAIN BRANCH,Internal,1
 Parent Node Connection,NODE 43,BRANCH,AIR LOOP HVAC 4 MAIN BRANCH,Outlet,1
 Parent Node Connection,NODE 51,BRANCH,AIR LOOP HVAC 5 MAIN BRANCH,Inlet,1
 Parent Node Connection,NODE 59,BRANCH,AIR LOOP HVAC 5 MAIN BRANCH,Internal,1
 Parent Node Connection,NODE 52,BRANCH,AIR LOOP HVAC 5 MAIN BRANCH,Outlet,1
 Parent Node Connection,NODE 60,BRANCH,AIR LOOP HVAC 6 MAIN BRANCH,Inlet,1
 Parent Node Connection,NODE 68,BRANCH,AIR LOOP HVAC 6 MAIN BRANCH,Internal,1
 Parent Node Connection,NODE 61,BRANCH,AIR LOOP HVAC 6 MAIN BRANCH,Outlet,1
 Parent Node Connection,NODE 69,BRANCH,AIR LOOP HVAC 7 MAIN BRANCH,Inlet,1
 Parent Node Connection,NODE 77,BRANCH,AIR LOOP HVAC 7 MAIN BRANCH,Internal,1
 Parent Node Connection,NODE 70,BRANCH,AIR LOOP HVAC 7 MAIN BRANCH,Outlet,1
 Parent Node Connection,NODE 78,BRANCH,AIR LOOP HVAC 8 MAIN BRANCH,Inlet,1
 Parent Node Connection,NODE 86,BRANCH,AIR LOOP HVAC 8 MAIN BRANCH,Internal,1
 Parent Node Connection,NODE 79,BRANCH,AIR LOOP HVAC 8 MAIN BRANCH,Outlet,1
 Parent Node Connection,NODE 87,BRANCH,AIR LOOP HVAC 9 MAIN BRANCH,Inlet,1
 Parent Node Connection,NODE 95,BRANCH,AIR LOOP HVAC 9 MAIN BRANCH,Internal,1
 Parent Node Connection,NODE 88,BRANCH,AIR LOOP HVAC 9 MAIN BRANCH,Outlet,1
 Parent Node Connection,NODE 15,AIRLOOPHVAC:SUPPLYPATH,AIR LOOP HVAC 1 NODE 15 SUPPLY PATH,Inlet,1
 Parent Node Connection,NODE 98,AIRLOOPHVAC:SUPPLYPATH,AIR LOOP HVAC 10 NODE 98 SUPPLY PATH,Inlet,1
 Parent Node Connection,NODE 107,AIRLOOPHVAC:SUPPLYPATH,AIR LOOP HVAC 11 NODE 107 SUPPLY PATH,Inlet,1
 Parent Node Connection,NODE 116,AIRLOOPHVAC:SUPPLYPATH,AIR LOOP HVAC 12 NODE 116 SUPPLY PATH,Inlet,1
 Parent Node Connection,NODE 26,AIRLOOPHVAC:SUPPLYPATH,AIR LOOP HVAC 2 NODE 26 SUPPLY PATH,Inlet,1
 Parent Node Connection,NODE 35,AIRLOOPHVAC:SUPPLYPATH,AIR LOOP HVAC 3 NODE 35 SUPPLY PATH,Inlet,1
 Parent Node Connection,NODE 44,AIRLOOPHVAC:SUPPLYPATH,AIR LOOP HVAC 4 NODE 44 SUPPLY PATH,Inlet,1
 Parent Node Connection,NODE 53,AIRLOOPHVAC:SUPPLYPATH,AIR LOOP HVAC 5 NODE 53 SUPPLY PATH,Inlet,1
 Parent Node Connection,NODE 62,AIRLOOPHVAC:SUPPLYPATH,AIR LOOP HVAC 6 NODE 62 SUPPLY PATH,Inlet,1
 Parent Node Connection,NODE 71,AIRLOOPHVAC:SUPPLYPATH,AIR LOOP HVAC 7 NODE 71 SUPPLY PATH,Inlet,1
 Parent Node Connection,NODE 80,AIRLOOPHVAC:SUPPLYPATH,AIR LOOP HVAC 8 NODE 80 SUPPLY PATH,Inlet,1
 Parent Node Connection,NODE 89,AIRLOOPHVAC:SUPPLYPATH,AIR LOOP HVAC 9 NODE 89 SUPPLY PATH,Inlet,1
 Parent Node Connection,NODE 16,AIRLOOPHVAC:RETURNPATH,AIR LOOP HVAC 1 RETURN PATH,Outlet,1
 Parent Node Connection,NODE 99,AIRLOOPHVAC:RETURNPATH,AIR LOOP HVAC 10 RETURN PATH,Outlet,1
 Parent Node Connection,NODE 108,AIRLOOPHVAC:RETURNPATH,AIR LOOP HVAC 11 RETURN PATH,Outlet,1
 Parent Node Connection,NODE 117,AIRLOOPHVAC:RETURNPATH,AIR LOOP HVAC 12 RETURN PATH,Outlet,1
 Parent Node Connection,NODE 27,AIRLOOPHVAC:RETURNPATH,AIR LOOP HVAC 2 RETURN PATH,Outlet,1
 Parent Node Connection,NODE 36,AIRLOOPHVAC:RETURNPATH,AIR LOOP HVAC 3 RETURN PATH,Outlet,1
 Parent Node Connection,NODE 45,AIRLOOPHVAC:RETURNPATH,AIR LOOP HVAC 4 RETURN PATH,Outlet,1
 Parent Node Connection,NODE 54,AIRLOOPHVAC:RETURNPATH,AIR LOOP HVAC 5 RETURN PATH,Outlet,1
 Parent Node Connection,NODE 63,AIRLOOPHVAC:RETURNPATH,AIR LOOP HVAC 6 RETURN PATH,Outlet,1
 Parent Node Connection,NODE 72,AIRLOOPHVAC:RETURNPATH,AIR LOOP HVAC 7 RETURN PATH,Outlet,1
 Parent Node Connection,NODE 81,AIRLOOPHVAC:RETURNPATH,AIR LOOP HVAC 8 RETURN PATH,Outlet,1
 Parent Node Connection,NODE 90,AIRLOOPHVAC:RETURNPATH,AIR LOOP HVAC 9 RETURN PATH,Outlet,1
 Parent Node Connection,NODE 13,AIRLOOPHVAC,AIR LOOP HVAC 1,Inlet,1
 Parent Node Connection,NODE 16,AIRLOOPHVAC,AIR LOOP HVAC 1,Outlet,1
 Parent Node Connection,NODE 15,AIRLOOPHVAC,AIR LOOP HVAC 1,Inlet,1
 Parent Node Connection,NODE 14,AIRLOOPHVAC,AIR LOOP HVAC 1,Outlet,1
 Parent Node Connection,NODE 96,AIRLOOPHVAC,AIR LOOP HVAC 10,Inlet,1
 Parent Node Connection,NODE 99,AIRLOOPHVAC,AIR LOOP HVAC 10,Outlet,1
 Parent Node Connection,NODE 98,AIRLOOPHVAC,AIR LOOP HVAC 10,Inlet,1
 Parent Node Connection,NODE 97,AIRLOOPHVAC,AIR LOOP HVAC 10,Outlet,1
 Parent Node Connection,NODE 105,AIRLOOPHVAC,AIR LOOP HVAC 11,Inlet,1
 Parent Node Connection,NODE 108,AIRLOOPHVAC,AIR LOOP HVAC 11,Outlet,1
 Parent Node Connection,NODE 107,AIRLOOPHVAC,AIR LOOP HVAC 11,Inlet,1
 Parent Node Connection,NODE 106,AIRLOOPHVAC,AIR LOOP HVAC 11,Outlet,1
 Parent Node Connection,NODE 114,AIRLOOPHVAC,AIR LOOP HVAC 12,Inlet,1
 Parent Node Connection,NODE 117,AIRLOOPHVAC,AIR LOOP HVAC 12,Outlet,1
 Parent Node Connection,NODE 116,AIRLOOPHVAC,AIR LOOP HVAC 12,Inlet,1
 Parent Node Connection,NODE 115,AIRLOOPHVAC,AIR LOOP HVAC 12,Outlet,1
 Parent Node Connection,NODE 24,AIRLOOPHVAC,AIR LOOP HVAC 2,Inlet,1
 Parent Node Connection,NODE 27,AIRLOOPHVAC,AIR LOOP HVAC 2,Outlet,1
 Parent Node Connection,NODE 26,AIRLOOPHVAC,AIR LOOP HVAC 2,Inlet,1
 Parent Node Connection,NODE 25,AIRLOOPHVAC,AIR LOOP HVAC 2,Outlet,1
 Parent Node Connection,NODE 33,AIRLOOPHVAC,AIR LOOP HVAC 3,Inlet,1
 Parent Node Connection,NODE 36,AIRLOOPHVAC,AIR LOOP HVAC 3,Outlet,1
 Parent Node Connection,NODE 35,AIRLOOPHVAC,AIR LOOP HVAC 3,Inlet,1
 Parent Node Connection,NODE 34,AIRLOOPHVAC,AIR LOOP HVAC 3,Outlet,1
 Parent Node Connection,NODE 42,AIRLOOPHVAC,AIR LOOP HVAC 4,Inlet,1
 Parent Node Connection,NODE 45,AIRLOOPHVAC,AIR LOOP HVAC 4,Outlet,1
 Parent Node Connection,NODE 44,AIRLOOPHVAC,AIR LOOP HVAC 4,Inlet,1
 Parent Node Connection,NODE 43,AIRLOOPHVAC,AIR LOOP HVAC 4,Outlet,1
 Parent Node Connection,NODE 51,AIRLOOPHVAC,AIR LOOP HVAC 5,Inlet,1
 Parent Node Connection,NODE 54,AIRLOOPHVAC,AIR LOOP HVAC 5,Outlet,1
 Parent Node Connection,NODE 53,AIRLOOPHVAC,AIR LOOP HVAC 5,Inlet,1
 Parent Node Connection,NODE 52,AIRLOOPHVAC,AIR LOOP HVAC 5,Outlet,1
 Parent Node Connection,NODE 60,AIRLOOPHVAC,AIR LOOP HVAC 6,Inlet,1
 Parent Node Connection,NODE 63,AIRLOOPHVAC,AIR LOOP HVAC 6,Outlet,1
 Parent Node Connection,NODE 62,AIRLOOPHVAC,AIR LOOP HVAC 6,Inlet,1
 Parent Node Connection,NODE 61,AIRLOOPHVAC,AIR LOOP HVAC 6,Outlet,1
 Parent Node Connection,NODE 69,AIRLOOPHVAC,AIR LOOP HVAC 7,Inlet,1
 Parent Node Connection,NODE 72,AIRLOOPHVAC,AIR LOOP HVAC 7,Outlet,1
 Parent Node Connection,NODE 71,AIRLOOPHVAC,AIR LOOP HVAC 7,Inlet,1
 Parent Node Connection,NODE 70,AIRLOOPHVAC,AIR LOOP HVAC 7,Outlet,1
 Parent Node Connection,NODE 78,AIRLOOPHVAC,AIR LOOP HVAC 8,Inlet,1
 Parent Node Connection,NODE 81,AIRLOOPHVAC,AIR LOOP HVAC 8,Outlet,1
 Parent Node Connection,NODE 80,AIRLOOPHVAC,AIR LOOP HVAC 8,Inlet,1
 Parent Node Connection,NODE 79,AIRLOOPHVAC,AIR LOOP HVAC 8,Outlet,1
 Parent Node Connection,NODE 87,AIRLOOPHVAC,AIR LOOP HVAC 9,Inlet,1
 Parent Node Connection,NODE 90,AIRLOOPHVAC,AIR LOOP HVAC 9,Outlet,1
 Parent Node Connection,NODE 89,AIRLOOPHVAC,AIR LOOP HVAC 9,Inlet,1
 Parent Node Connection,NODE 88,AIRLOOPHVAC,AIR LOOP HVAC 9,Outlet,1
 Parent Node Connection,NODE 20,AIRLOOPHVAC:UNITARYSYSTEM,UNITARY - DX HEAT PUMP - CYCLING - ELEC REHEAT,Inlet,1
 Parent Node Connection,NODE 14,AIRLOOPHVAC:UNITARYSYSTEM,UNITARY - DX HEAT PUMP - CYCLING - ELEC REHEAT,Outlet,1
 Parent Node Connection,NODE 103,AIRLOOPHVAC:UNITARYSYSTEM,UNITARY - DX HEAT PUMP - CYCLING - ELEC REHEAT 9,Inlet,1
 Parent Node Connection,NODE 97,AIRLOOPHVAC:UNITARYSYSTEM,UNITARY - DX HEAT PUMP - CYCLING - ELEC REHEAT 9,Outlet,1
 Parent Node Connection,NODE 113,AIRLOOPHVAC:UNITARYSYSTEM,UNITARY - DX HEAT PUMP - CYCLING - ELEC REHEAT 10,Inlet,1
 Parent Node Connection,NODE 106,AIRLOOPHVAC:UNITARYSYSTEM,UNITARY - DX HEAT PUMP - CYCLING - ELEC REHEAT 10,Outlet,1
 Parent Node Connection,NODE 122,AIRLOOPHVAC:UNITARYSYSTEM,UNITARY - DX HEAT PUMP - CYCLING - ELEC REHEAT 11,Inlet,1
 Parent Node Connection,NODE 115,AIRLOOPHVAC:UNITARYSYSTEM,UNITARY - DX HEAT PUMP - CYCLING - ELEC REHEAT 11,Outlet,1
 Parent Node Connection,NODE 32,AIRLOOPHVAC:UNITARYSYSTEM,UNITARY - DX HEAT PUMP - CYCLING - ELEC REHEAT 1,Inlet,1
 Parent Node Connection,NODE 25,AIRLOOPHVAC:UNITARYSYSTEM,UNITARY - DX HEAT PUMP - CYCLING - ELEC REHEAT 1,Outlet,1
 Parent Node Connection,NODE 41,AIRLOOPHVAC:UNITARYSYSTEM,UNITARY - DX HEAT PUMP - CYCLING - ELEC REHEAT 2,Inlet,1
 Parent Node Connection,NODE 34,AIRLOOPHVAC:UNITARYSYSTEM,UNITARY - DX HEAT PUMP - CYCLING - ELEC REHEAT 2,Outlet,1
 Parent Node Connection,NODE 50,AIRLOOPHVAC:UNITARYSYSTEM,UNITARY - DX HEAT PUMP - CYCLING - ELEC REHEAT 3,Inlet,1
 Parent Node Connection,NODE 43,AIRLOOPHVAC:UNITARYSYSTEM,UNITARY - DX HEAT PUMP - CYCLING - ELEC REHEAT 3,Outlet,1
 Parent Node Connection,NODE 59,AIRLOOPHVAC:UNITARYSYSTEM,UNITARY - DX HEAT PUMP - CYCLING - ELEC REHEAT 4,Inlet,1
 Parent Node Connection,NODE 52,AIRLOOPHVAC:UNITARYSYSTEM,UNITARY - DX HEAT PUMP - CYCLING - ELEC REHEAT 4,Outlet,1
 Parent Node Connection,NODE 68,AIRLOOPHVAC:UNITARYSYSTEM,UNITARY - DX HEAT PUMP - CYCLING - ELEC REHEAT 5,Inlet,1
 Parent Node Connection,NODE 61,AIRLOOPHVAC:UNITARYSYSTEM,UNITARY - DX HEAT PUMP - CYCLING - ELEC REHEAT 5,Outlet,1
 Parent Node Connection,NODE 77,AIRLOOPHVAC:UNITARYSYSTEM,UNITARY - DX HEAT PUMP - CYCLING - ELEC REHEAT 6,Inlet,1
 Parent Node Connection,NODE 70,AIRLOOPHVAC:UNITARYSYSTEM,UNITARY - DX HEAT PUMP - CYCLING - ELEC REHEAT 6,Outlet,1
 Parent Node Connection,NODE 86,AIRLOOPHVAC:UNITARYSYSTEM,UNITARY - DX HEAT PUMP - CYCLING - ELEC REHEAT 7,Inlet,1
 Parent Node Connection,NODE 79,AIRLOOPHVAC:UNITARYSYSTEM,UNITARY - DX HEAT PUMP - CYCLING - ELEC REHEAT 7,Outlet,1
 Parent Node Connection,NODE 95,AIRLOOPHVAC:UNITARYSYSTEM,UNITARY - DX HEAT PUMP - CYCLING - ELEC REHEAT 8,Inlet,1
 Parent Node Connection,NODE 88,AIRLOOPHVAC:UNITARYSYSTEM,UNITARY - DX HEAT PUMP - CYCLING - ELEC REHEAT 8,Outlet,1
! ===============================================================
! <#Non-Parent Node Connections>,<Number of Non-Parent Node Connections>
 #Non-Parent Node Connections,303
! <Non-Parent Node Connection>,<Node Name>,<Node ObjectType>,<Node ObjectName>,<Node ConnectionType>,<Node FluidStream>
 Non-Parent Node Connection,NODE 2,ZONEHVAC:EQUIPMENTCONNECTIONS,01_A1,ZoneNode,1
 Non-Parent Node Connection,NODE 17,ZONEHVAC:EQUIPMENTCONNECTIONS,01_A1,ZoneInlet,1
 Non-Parent Node Connection,NODE 21,ZONEHVAC:EQUIPMENTCONNECTIONS,01_A1,ZoneReturn,1
 Non-Parent Node Connection,NODE 1,ZONEHVAC:EQUIPMENTCONNECTIONS,01_A2,ZoneNode,1
 Non-Parent Node Connection,NODE 23,ZONEHVAC:EQUIPMENTCONNECTIONS,01_A2,ZoneInlet,1
 Non-Parent Node Connection,NODE 28,ZONEHVAC:EQUIPMENTCONNECTIONS,01_A2,ZoneInlet,1
 Non-Parent Node Connection,NODE 22,ZONEHVAC:EQUIPMENTCONNECTIONS,01_A2,ZoneExhaust,1
 Non-Parent Node Connection,NODE 29,ZONEHVAC:EQUIPMENTCONNECTIONS,01_A2,ZoneReturn,1
 Non-Parent Node Connection,NODE 4,ZONEHVAC:EQUIPMENTCONNECTIONS,01_B2,ZoneNode,1
 Non-Parent Node Connection,NODE 37,ZONEHVAC:EQUIPMENTCONNECTIONS,01_B2,ZoneInlet,1
 Non-Parent Node Connection,NODE 38,ZONEHVAC:EQUIPMENTCONNECTIONS,01_B2,ZoneReturn,1
 Non-Parent Node Connection,NODE 3,ZONEHVAC:EQUIPMENTCONNECTIONS,01_C1,ZoneNode,1
 Non-Parent Node Connection,NODE 46,ZONEHVAC:EQUIPMENTCONNECTIONS,01_C1,ZoneInlet,1
 Non-Parent Node Connection,NODE 47,ZONEHVAC:EQUIPMENTCONNECTIONS,01_C1,ZoneReturn,1
 Non-Parent Node Connection,NODE 6,ZONEHVAC:EQUIPMENTCONNECTIONS,02_A1,ZoneNode,1
 Non-Parent Node Connection,NODE 55,ZONEHVAC:EQUIPMENTCONNECTIONS,02_A1,ZoneInlet,1
 Non-Parent Node Connection,NODE 56,ZONEHVAC:EQUIPMENTCONNECTIONS,02_A1,ZoneReturn,1
 Non-Parent Node Connection,NODE 5,ZONEHVAC:EQUIPMENTCONNECTIONS,02_A2,ZoneNode,1
 Non-Parent Node Connection,NODE 64,ZONEHVAC:EQUIPMENTCONNECTIONS,02_A2,ZoneInlet,1
 Non-Parent Node Connection,NODE 65,ZONEHVAC:EQUIPMENTCONNECTIONS,02_A2,ZoneReturn,1
 Non-Parent Node Connection,NODE 8,ZONEHVAC:EQUIPMENTCONNECTIONS,02_B2,ZoneNode,1
 Non-Parent Node Connection,NODE 73,ZONEHVAC:EQUIPMENTCONNECTIONS,02_B2,ZoneInlet,1
 Non-Parent Node Connection,NODE 74,ZONEHVAC:EQUIPMENTCONNECTIONS,02_B2,ZoneReturn,1
 Non-Parent Node Connection,NODE 7,ZONEHVAC:EQUIPMENTCONNECTIONS,02_C1,ZoneNode,1
 Non-Parent Node Connection,NODE 82,ZONEHVAC:EQUIPMENTCONNECTIONS,02_C1,ZoneInlet,1
 Non-Parent Node Connection,NODE 83,ZONEHVAC:EQUIPMENTCONNECTIONS,02_C1,ZoneReturn,1
 Non-Parent Node Connection,NODE 10,ZONEHVAC:EQUIPMENTCONNECTIONS,03_A1,ZoneNode,1
 Non-Parent Node Connection,NODE 91,ZONEHVAC:EQUIPMENTCONNECTIONS,03_A1,ZoneInlet,1
 Non-Parent Node Connection,NODE 92,ZONEHVAC:EQUIPMENTCONNECTIONS,03_A1,ZoneReturn,1
 Non-Parent Node Connection,NODE 9,ZONEHVAC:EQUIPMENTCONNECTIONS,03_A2,ZoneNode,1
 Non-Parent Node Connection,NODE 100,ZONEHVAC:EQUIPMENTCONNECTIONS,03_A2,ZoneInlet,1
 Non-Parent Node Connection,NODE 104,ZONEHVAC:EQUIPMENTCONNECTIONS,03_A2,ZoneReturn,1
 Non-Parent Node Connection,NODE 12,ZONEHVAC:EQUIPMENTCONNECTIONS,03_B2,ZoneNode,1
 Non-Parent Node Connection,NODE 109,ZONEHVAC:EQUIPMENTCONNECTIONS,03_B2,ZoneInlet,1
 Non-Parent Node Connection,NODE 110,ZONEHVAC:EQUIPMENTCONNECTIONS,03_B2,ZoneReturn,1
 Non-Parent Node Connection,NODE 11,ZONEHVAC:EQUIPMENTCONNECTIONS,03_C1,ZoneNode,1
 Non-Parent Node Connection,NODE 118,ZONEHVAC:EQUIPMENTCONNECTIONS,03_C1,ZoneInlet,1
 Non-Parent Node Connection,NODE 119,ZONEHVAC:EQUIPMENTCONNECTIONS,03_C1,ZoneReturn,1
 Non-Parent Node Connection,NODE 18,OUTDOORAIR:NODELIST,OutdoorAir:NodeList,OutdoorAir,1
 Non-Parent Node Connection,NODE 101,OUTDOORAIR:NODELIST,OutdoorAir:NodeList,OutdoorAir,2
 Non-Parent Node Connection,NODE 111,OUTDOORAIR:NODELIST,OutdoorAir:NodeList,OutdoorAir,3
 Non-Parent Node Connection,NODE 120,OUTDOORAIR:NODELIST,OutdoorAir:NodeList,OutdoorAir,4
 Non-Parent Node Connection,NODE 30,OUTDOORAIR:NODELIST,OutdoorAir:NodeList,OutdoorAir,5
 Non-Parent Node Connection,NODE 39,OUTDOORAIR:NODELIST,OutdoorAir:NodeList,OutdoorAir,6
 Non-Parent Node Connection,NODE 48,OUTDOORAIR:NODELIST,OutdoorAir:NodeList,OutdoorAir,7
 Non-Parent Node Connection,NODE 57,OUTDOORAIR:NODELIST,OutdoorAir:NodeList,OutdoorAir,8
 Non-Parent Node Connection,NODE 66,OUTDOORAIR:NODELIST,OutdoorAir:NodeList,OutdoorAir,9
 Non-Parent Node Connection,NODE 75,OUTDOORAIR:NODELIST,OutdoorAir:NodeList,OutdoorAir,10
 Non-Parent Node Connection,NODE 84,OUTDOORAIR:NODELIST,OutdoorAir:NodeList,OutdoorAir,11
 Non-Parent Node Connection,NODE 93,OUTDOORAIR:NODELIST,OutdoorAir:NodeList,OutdoorAir,12
 Non-Parent Node Connection,MODEL OUTDOOR AIR NODE,OUTDOORAIR:NODE,OutdoorAir:Node,OutdoorAir,13
 Non-Parent Node Connection,NODE 15,AIRLOOPHVAC:ZONESPLITTER,AIR LOOP HVAC ZONE SPLITTER 1,Inlet,1
 Non-Parent Node Connection,NODE 17,AIRLOOPHVAC:ZONESPLITTER,AIR LOOP HVAC ZONE SPLITTER 1,Outlet,1
 Non-Parent Node Connection,NODE 98,AIRLOOPHVAC:ZONESPLITTER,AIR LOOP HVAC ZONE SPLITTER 10,Inlet,1
 Non-Parent Node Connection,NODE 100,AIRLOOPHVAC:ZONESPLITTER,AIR LOOP HVAC ZONE SPLITTER 10,Outlet,1
 Non-Parent Node Connection,NODE 107,AIRLOOPHVAC:ZONESPLITTER,AIR LOOP HVAC ZONE SPLITTER 11,Inlet,1
 Non-Parent Node Connection,NODE 109,AIRLOOPHVAC:ZONESPLITTER,AIR LOOP HVAC ZONE SPLITTER 11,Outlet,1
 Non-Parent Node Connection,NODE 116,AIRLOOPHVAC:ZONESPLITTER,AIR LOOP HVAC ZONE SPLITTER 12,Inlet,1
 Non-Parent Node Connection,NODE 118,AIRLOOPHVAC:ZONESPLITTER,AIR LOOP HVAC ZONE SPLITTER 12,Outlet,1
 Non-Parent Node Connection,NODE 26,AIRLOOPHVAC:ZONESPLITTER,AIR LOOP HVAC ZONE SPLITTER 2,Inlet,1
 Non-Parent Node Connection,NODE 28,AIRLOOPHVAC:ZONESPLITTER,AIR LOOP HVAC ZONE SPLITTER 2,Outlet,1
 Non-Parent Node Connection,NODE 35,AIRLOOPHVAC:ZONESPLITTER,AIR LOOP HVAC ZONE SPLITTER 3,Inlet,1
 Non-Parent Node Connection,NODE 37,AIRLOOPHVAC:ZONESPLITTER,AIR LOOP HVAC ZONE SPLITTER 3,Outlet,1
 Non-Parent Node Connection,NODE 44,AIRLOOPHVAC:ZONESPLITTER,AIR LOOP HVAC ZONE SPLITTER 4,Inlet,1
 Non-Parent Node Connection,NODE 46,AIRLOOPHVAC:ZONESPLITTER,AIR LOOP HVAC ZONE SPLITTER 4,Outlet,1
 Non-Parent Node Connection,NODE 53,AIRLOOPHVAC:ZONESPLITTER,AIR LOOP HVAC ZONE SPLITTER 5,Inlet,1
 Non-Parent Node Connection,NODE 55,AIRLOOPHVAC:ZONESPLITTER,AIR LOOP HVAC ZONE SPLITTER 5,Outlet,1
 Non-Parent Node Connection,NODE 62,AIRLOOPHVAC:ZONESPLITTER,AIR LOOP HVAC ZONE SPLITTER 6,Inlet,1
 Non-Parent Node Connection,NODE 64,AIRLOOPHVAC:ZONESPLITTER,AIR LOOP HVAC ZONE SPLITTER 6,Outlet,1
 Non-Parent Node Connection,NODE 71,AIRLOOPHVAC:ZONESPLITTER,AIR LOOP HVAC ZONE SPLITTER 7,Inlet,1
 Non-Parent Node Connection,NODE 73,AIRLOOPHVAC:ZONESPLITTER,AIR LOOP HVAC ZONE SPLITTER 7,Outlet,1
 Non-Parent Node Connection,NODE 80,AIRLOOPHVAC:ZONESPLITTER,AIR LOOP HVAC ZONE SPLITTER 8,Inlet,1
 Non-Parent Node Connection,NODE 82,AIRLOOPHVAC:ZONESPLITTER,AIR LOOP HVAC ZONE SPLITTER 8,Outlet,1
 Non-Parent Node Connection,NODE 89,AIRLOOPHVAC:ZONESPLITTER,AIR LOOP HVAC ZONE SPLITTER 9,Inlet,1
 Non-Parent Node Connection,NODE 91,AIRLOOPHVAC:ZONESPLITTER,AIR LOOP HVAC ZONE SPLITTER 9,Outlet,1
 Non-Parent Node Connection,NODE 17,AIRTERMINAL:SINGLEDUCT:UNCONTROLLED,DIFFUSER,Outlet,1
 Non-Parent Node Connection,NODE 28,AIRTERMINAL:SINGLEDUCT:UNCONTROLLED,DIFFUSER 1,Outlet,1
 Non-Parent Node Connection,NODE 37,AIRTERMINAL:SINGLEDUCT:UNCONTROLLED,DIFFUSER 2,Outlet,1
 Non-Parent Node Connection,NODE 46,AIRTERMINAL:SINGLEDUCT:UNCONTROLLED,DIFFUSER 3,Outlet,1
 Non-Parent Node Connection,NODE 55,AIRTERMINAL:SINGLEDUCT:UNCONTROLLED,DIFFUSER 4,Outlet,1
 Non-Parent Node Connection,NODE 64,AIRTERMINAL:SINGLEDUCT:UNCONTROLLED,DIFFUSER 5,Outlet,1
 Non-Parent Node Connection,NODE 73,AIRTERMINAL:SINGLEDUCT:UNCONTROLLED,DIFFUSER 11,Outlet,1
 Non-Parent Node Connection,NODE 82,AIRTERMINAL:SINGLEDUCT:UNCONTROLLED,DIFFUSER 6,Outlet,1
 Non-Parent Node Connection,NODE 91,AIRTERMINAL:SINGLEDUCT:UNCONTROLLED,DIFFUSER 7,Outlet,1
 Non-Parent Node Connection,NODE 100,AIRTERMINAL:SINGLEDUCT:UNCONTROLLED,DIFFUSER 8,Outlet,1
 Non-Parent Node Connection,NODE 109,AIRTERMINAL:SINGLEDUCT:UNCONTROLLED,DIFFUSER 9,Outlet,1
 Non-Parent Node Connection,NODE 118,AIRTERMINAL:SINGLEDUCT:UNCONTROLLED,DIFFUSER 10,Outlet,1
 Non-Parent Node Connection,NODE 16,AIRLOOPHVAC:ZONEMIXER,AIR LOOP HVAC ZONE MIXER 1,Outlet,1
 Non-Parent Node Connection,NODE 21,AIRLOOPHVAC:ZONEMIXER,AIR LOOP HVAC ZONE MIXER 1,Inlet,1
 Non-Parent Node Connection,NODE 99,AIRLOOPHVAC:ZONEMIXER,AIR LOOP HVAC ZONE MIXER 10,Outlet,1
 Non-Parent Node Connection,NODE 104,AIRLOOPHVAC:ZONEMIXER,AIR LOOP HVAC ZONE MIXER 10,Inlet,1
 Non-Parent Node Connection,NODE 108,AIRLOOPHVAC:ZONEMIXER,AIR LOOP HVAC ZONE MIXER 11,Outlet,1
 Non-Parent Node Connection,NODE 110,AIRLOOPHVAC:ZONEMIXER,AIR LOOP HVAC ZONE MIXER 11,Inlet,1
 Non-Parent Node Connection,NODE 117,AIRLOOPHVAC:ZONEMIXER,AIR LOOP HVAC ZONE MIXER 12,Outlet,1
 Non-Parent Node Connection,NODE 119,AIRLOOPHVAC:ZONEMIXER,AIR LOOP HVAC ZONE MIXER 12,Inlet,1
 Non-Parent Node Connection,NODE 27,AIRLOOPHVAC:ZONEMIXER,AIR LOOP HVAC ZONE MIXER 2,Outlet,1
 Non-Parent Node Connection,NODE 29,AIRLOOPHVAC:ZONEMIXER,AIR LOOP HVAC ZONE MIXER 2,Inlet,1
 Non-Parent Node Connection,NODE 36,AIRLOOPHVAC:ZONEMIXER,AIR LOOP HVAC ZONE MIXER 3,Outlet,1
 Non-Parent Node Connection,NODE 38,AIRLOOPHVAC:ZONEMIXER,AIR LOOP HVAC ZONE MIXER 3,Inlet,1
 Non-Parent Node Connection,NODE 45,AIRLOOPHVAC:ZONEMIXER,AIR LOOP HVAC ZONE MIXER 4,Outlet,1
 Non-Parent Node Connection,NODE 47,AIRLOOPHVAC:ZONEMIXER,AIR LOOP HVAC ZONE MIXER 4,Inlet,1
 Non-Parent Node Connection,NODE 54,AIRLOOPHVAC:ZONEMIXER,AIR LOOP HVAC ZONE MIXER 5,Outlet,1
 Non-Parent Node Connection,NODE 56,AIRLOOPHVAC:ZONEMIXER,AIR LOOP HVAC ZONE MIXER 5,Inlet,1
 Non-Parent Node Connection,NODE 63,AIRLOOPHVAC:ZONEMIXER,AIR LOOP HVAC ZONE MIXER 6,Outlet,1
 Non-Parent Node Connection,NODE 65,AIRLOOPHVAC:ZONEMIXER,AIR LOOP HVAC ZONE MIXER 6,Inlet,1
 Non-Parent Node Connection,NODE 72,AIRLOOPHVAC:ZONEMIXER,AIR LOOP HVAC ZONE MIXER 7,Outlet,1
 Non-Parent Node Connection,NODE 74,AIRLOOPHVAC:ZONEMIXER,AIR LOOP HVAC ZONE MIXER 7,Inlet,1
 Non-Parent Node Connection,NODE 81,AIRLOOPHVAC:ZONEMIXER,AIR LOOP HVAC ZONE MIXER 8,Outlet,1
 Non-Parent Node Connection,NODE 83,AIRLOOPHVAC:ZONEMIXER,AIR LOOP HVAC ZONE MIXER 8,Inlet,1
 Non-Parent Node Connection,NODE 90,AIRLOOPHVAC:ZONEMIXER,AIR LOOP HVAC ZONE MIXER 9,Outlet,1
 Non-Parent Node Connection,NODE 92,AIRLOOPHVAC:ZONEMIXER,AIR LOOP HVAC ZONE MIXER 9,Inlet,1
 Non-Parent Node Connection,NODE 20,OUTDOORAIR:MIXER,OA SYSTEM OUTDOOR AIR MIXER,Outlet,1
 Non-Parent Node Connection,NODE 18,OUTDOORAIR:MIXER,OA SYSTEM OUTDOOR AIR MIXER,Inlet,1
 Non-Parent Node Connection,NODE 19,OUTDOORAIR:MIXER,OA SYSTEM OUTDOOR AIR MIXER,ReliefAir,1
 Non-Parent Node Connection,NODE 13,OUTDOORAIR:MIXER,OA SYSTEM OUTDOOR AIR MIXER,Inlet,1
 Non-Parent Node Connection,NODE 103,OUTDOORAIR:MIXER,OA SYSTEM 9 OUTDOOR AIR MIXER,Outlet,1
 Non-Parent Node Connection,NODE 101,OUTDOORAIR:MIXER,OA SYSTEM 9 OUTDOOR AIR MIXER,Inlet,1
 Non-Parent Node Connection,NODE 102,OUTDOORAIR:MIXER,OA SYSTEM 9 OUTDOOR AIR MIXER,ReliefAir,1
 Non-Parent Node Connection,NODE 96,OUTDOORAIR:MIXER,OA SYSTEM 9 OUTDOOR AIR MIXER,Inlet,1
 Non-Parent Node Connection,NODE 113,OUTDOORAIR:MIXER,OA SYSTEM 10 OUTDOOR AIR MIXER,Outlet,1
 Non-Parent Node Connection,NODE 111,OUTDOORAIR:MIXER,OA SYSTEM 10 OUTDOOR AIR MIXER,Inlet,1
 Non-Parent Node Connection,NODE 112,OUTDOORAIR:MIXER,OA SYSTEM 10 OUTDOOR AIR MIXER,ReliefAir,1
 Non-Parent Node Connection,NODE 105,OUTDOORAIR:MIXER,OA SYSTEM 10 OUTDOOR AIR MIXER,Inlet,1
 Non-Parent Node Connection,NODE 122,OUTDOORAIR:MIXER,OA SYSTEM 11 OUTDOOR AIR MIXER,Outlet,1
[...]
 Non-Parent Node Connection,NODE 48,OUTDOORAIR:MIXER,OA SYSTEM 3 OUTDOOR AIR MIXER,Inlet,1
 Non-Parent Node Connection,NODE 49,OUTDOORAIR:MIXER,OA SYSTEM 3 OUTDOOR AIR MIXER,ReliefAir,1
 Non-Parent Node Connection,NODE 42,OUTDOORAIR:MIXER,OA SYSTEM 3 OUTDOOR AIR MIXER,Inlet,1
 Non-Parent Node Connection,NODE 59,OUTDOORAIR:MIXER,OA SYSTEM 4 OUTDOOR AIR MIXER,Outlet,1
 Non-Parent Node Connection,NODE 57,OUTDOORAIR:MIXER,OA SYSTEM 4 OUTDOOR AIR MIXER,Inlet,1
 Non-Parent Node Connection,NODE 58,OUTDOORAIR:MIXER,OA SYSTEM 4 OUTDOOR AIR MIXER,ReliefAir,1
 Non-Parent Node Connection,NODE 51,OUTDOORAIR:MIXER,OA SYSTEM 4 OUTDOOR AIR MIXER,Inlet,1
 Non-Parent Node Connection,NODE 68,OUTDOORAIR:MIXER,OA SYSTEM 5 OUTDOOR AIR MIXER,Outlet,1
 Non-Parent Node Connection,NODE 66,OUTDOORAIR:MIXER,OA SYSTEM 5 OUTDOOR AIR MIXER,Inlet,1
 Non-Parent Node Connection,NODE 67,OUTDOORAIR:MIXER,OA SYSTEM 5 OUTDOOR AIR MIXER,ReliefAir,1
 Non-Parent Node Connection,NODE 60,OUTDOORAIR:MIXER,OA SYSTEM 5 OUTDOOR AIR MIXER,Inlet,1
 Non-Parent Node Connection,NODE 77,OUTDOORAIR:MIXER,OA SYSTEM 6 OUTDOOR AIR MIXER,Outlet,1
 Non-Parent Node Connection,NODE 75,OUTDOORAIR:MIXER,OA SYSTEM 6 OUTDOOR AIR MIXER,Inlet,1
 Non-Parent Node Connection,NODE 76,OUTDOORAIR:MIXER,OA SYSTEM 6 OUTDOOR AIR MIXER,ReliefAir,1
 Non-Parent Node Connection,NODE 69,OUTDOORAIR:MIXER,OA SYSTEM 6 OUTDOOR AIR MIXER,Inlet,1
 Non-Parent Node Connection,NODE 86,OUTDOORAIR:MIXER,OA SYSTEM 7 OUTDOOR AIR MIXER,Outlet,1
 Non-Parent Node Connection,NODE 84,OUTDOORAIR:MIXER,OA SYSTEM 7 OUTDOOR AIR MIXER,Inlet,1
 Non-Parent Node Connection,NODE 85,OUTDOORAIR:MIXER,OA SYSTEM 7 OUTDOOR AIR MIXER,ReliefAir,1
 Non-Parent Node Connection,NODE 78,OUTDOORAIR:MIXER,OA SYSTEM 7 OUTDOOR AIR MIXER,Inlet,1
 Non-Parent Node Connection,NODE 95,OUTDOORAIR:MIXER,OA SYSTEM 8 OUTDOOR AIR MIXER,Outlet,1
 Non-Parent Node Connection,NODE 93,OUTDOORAIR:MIXER,OA SYSTEM 8 OUTDOOR AIR MIXER,Inlet,1
 Non-Parent Node Connection,NODE 94,OUTDOORAIR:MIXER,OA SYSTEM 8 OUTDOOR AIR MIXER,ReliefAir,1
 Non-Parent Node Connection,NODE 87,OUTDOORAIR:MIXER,OA SYSTEM 8 OUTDOOR AIR MIXER,Inlet,1
 Non-Parent Node Connection,NODE 20,CONTROLLER:OUTDOORAIR,OUTDOOR AIR CONTROLLER,Sensor,1
 Non-Parent Node Connection,NODE 18,CONTROLLER:OUTDOORAIR,OUTDOOR AIR CONTROLLER,Actuator,1
 Non-Parent Node Connection,NODE 19,CONTROLLER:OUTDOORAIR,OUTDOOR AIR CONTROLLER,Actuator,1
 Non-Parent Node Connection,NODE 13,CONTROLLER:OUTDOORAIR,OUTDOOR AIR CONTROLLER,Sensor,1
 Non-Parent Node Connection,NODE 103,CONTROLLER:OUTDOORAIR,OUTDOOR AIR CONTROLLER 9,Sensor,1
 Non-Parent Node Connection,NODE 101,CONTROLLER:OUTDOORAIR,OUTDOOR AIR CONTROLLER 9,Actuator,1
 Non-Parent Node Connection,NODE 102,CONTROLLER:OUTDOORAIR,OUTDOOR AIR CONTROLLER 9,Actuator,1
 Non-Parent Node Connection,NODE 96,CONTROLLER:OUTDOORAIR,OUTDOOR AIR CONTROLLER 9,Sensor,1
 Non-Parent Node Connection,NODE 113,CONTROLLER:OUTDOORAIR,OUTDOOR AIR CONTROLLER 10,Sensor,1
 Non-Parent Node Connection,NODE 111,CONTROLLER:OUTDOORAIR,OUTDOOR AIR CONTROLLER 10,Actuator,1
 Non-Parent Node Connection,NODE 112,CONTROLLER:OUTDOORAIR,OUTDOOR AIR CONTROLLER 10,Actuator,1
 Non-Parent Node Connection,NODE 105,CONTROLLER:OUTDOORAIR,OUTDOOR AIR CONTROLLER 10,Sensor,1
 Non-Parent Node Connection,NODE 122,CONTROLLER:OUTDOORAIR,OUTDOOR AIR CONTROLLER 11,Sensor,1
 Non-Parent Node Connection,NODE 120,CONTROLLER:OUTDOORAIR,OUTDOOR AIR CONTROLLER 11,Actuator,1
 Non-Parent Node Connection,NODE 121,CONTROLLER:OUTDOORAIR,OUTDOOR AIR CONTROLLER 11,Actuator,1
 Non-Parent Node Connection,NODE 114,CONTROLLER:OUTDOORAIR,OUTDOOR AIR CONTROLLER 11,Sensor,1
 Non-Parent Node Connection,NODE 32,CONTROLLER:OUTDOORAIR,OUTDOOR AIR CONTROLLER 1,Sensor,1
 Non-Parent Node Connection,NODE 30,CONTROLLER:OUTDOORAIR,OUTDOOR AIR CONTROLLER 1,Actuator,1
 Non-Parent Node Connection,NODE 31,CONTROLLER:OUTDOORAIR,OUTDOOR AIR CONTROLLER 1,Actuator,1
 Non-Parent Node Connection,NODE 24,CONTROLLER:OUTDOORAIR,OUTDOOR AIR CONTROLLER 1,Sensor,1
 Non-Parent Node Connection,NODE 41,CONTROLLER:OUTDOORAIR,OUTDOOR AIR CONTROLLER 2,Sensor,1
 Non-Parent Node Connection,NODE 39,CONTROLLER:OUTDOORAIR,OUTDOOR AIR CONTROLLER 2,Actuator,1
 Non-Parent Node Connection,NODE 40,CONTROLLER:OUTDOORAIR,OUTDOOR AIR CONTROLLER 2,Actuator,1
 Non-Parent Node Connection,NODE 33,CONTROLLER:OUTDOORAIR,OUTDOOR AIR CONTROLLER 2,Sensor,1
 Non-Parent Node Connection,NODE 50,CONTROLLER:OUTDOORAIR,OUTDOOR AIR CONTROLLER 3,Sensor,1
 Non-Parent Node Connection,NODE 48,CONTROLLER:OUTDOORAIR,OUTDOOR AIR CONTROLLER 3,Actuator,1
 Non-Parent Node Connection,NODE 49,CONTROLLER:OUTDOORAIR,OUTDOOR AIR CONTROLLER 3,Actuator,1
 Non-Parent Node Connection,NODE 42,CONTROLLER:OUTDOORAIR,OUTDOOR AIR CONTROLLER 3,Sensor,1
 Non-Parent Node Connection,NODE 59,CONTROLLER:OUTDOORAIR,OUTDOOR AIR CONTROLLER 4,Sensor,1
 Non-Parent Node Connection,NODE 57,CONTROLLER:OUTDOORAIR,OUTDOOR AIR CONTROLLER 4,Actuator,1
 Non-Parent Node Connection,NODE 58,CONTROLLER:OUTDOORAIR,OUTDOOR AIR CONTROLLER 4,Actuator,1
 Non-Parent Node Connection,NODE 51,CONTROLLER:OUTDOORAIR,OUTDOOR AIR CONTROLLER 4,Sensor,1
 Non-Parent Node Connection,NODE 68,CONTROLLER:OUTDOORAIR,OUTDOOR AIR CONTROLLER 5,Sensor,1
 Non-Parent Node Connection,NODE 66,CONTROLLER:OUTDOORAIR,OUTDOOR AIR CONTROLLER 5,Actuator,1
 Non-Parent Node Connection,NODE 67,CONTROLLER:OUTDOORAIR,OUTDOOR AIR CONTROLLER 5,Actuator,1
 Non-Parent Node Connection,NODE 60,CONTROLLER:OUTDOORAIR,OUTDOOR AIR CONTROLLER 5,Sensor,1
 Non-Parent Node Connection,NODE 77,CONTROLLER:OUTDOORAIR,OUTDOOR AIR CONTROLLER 6,Sensor,1
 Non-Parent Node Connection,NODE 75,CONTROLLER:OUTDOORAIR,OUTDOOR AIR CONTROLLER 6,Actuator,1
 Non-Parent Node Connection,NODE 76,CONTROLLER:OUTDOORAIR,OUTDOOR AIR CONTROLLER 6,Actuator,1
 Non-Parent Node Connection,NODE 69,CONTROLLER:OUTDOORAIR,OUTDOOR AIR CONTROLLER 6,Sensor,1
 Non-Parent Node Connection,NODE 86,CONTROLLER:OUTDOORAIR,OUTDOOR AIR CONTROLLER 7,Sensor,1
 Non-Parent Node Connection,NODE 84,CONTROLLER:OUTDOORAIR,OUTDOOR AIR CONTROLLER 7,Actuator,1
 Non-Parent Node Connection,NODE 85,CONTROLLER:OUTDOORAIR,OUTDOOR AIR CONTROLLER 7,Actuator,1
 Non-Parent Node Connection,NODE 78,CONTROLLER:OUTDOORAIR,OUTDOOR AIR CONTROLLER 7,Sensor,1
 Non-Parent Node Connection,NODE 95,CONTROLLER:OUTDOORAIR,OUTDOOR AIR CONTROLLER 8,Sensor,1
 Non-Parent Node Connection,NODE 93,CONTROLLER:OUTDOORAIR,OUTDOOR AIR CONTROLLER 8,Actuator,1
 Non-Parent Node Connection,NODE 94,CONTROLLER:OUTDOORAIR,OUTDOOR AIR CONTROLLER 8,Actuator,1
 Non-Parent Node Connection,NODE 87,CONTROLLER:OUTDOORAIR,OUTDOOR AIR CONTROLLER 8,Sensor,1
 Non-Parent Node Connection,NODE 20,FAN:ONOFF,FAN ON OFF 5,Inlet,1
 Non-Parent Node Connection,UNITARY - DX HEAT PUMP - CYCLING - ELEC REHEAT FAN - COOLING COIL NODE,FAN:ONOFF,FAN ON OFF 5,Outlet,1
 Non-Parent Node Connection,NODE 103,FAN:ONOFF,FAN ON OFF 14,Inlet,1
 Non-Parent Node Connection,UNITARY - DX HEAT PUMP - CYCLING - ELEC REHEAT 9 FAN - COOLING COIL NODE,FAN:ONOFF,FAN ON OFF 14,Outlet,1
 Non-Parent Node Connection,NODE 113,FAN:ONOFF,FAN ON OFF 15,Inlet,1
 Non-Parent Node Connection,UNITARY - DX HEAT PUMP - CYCLING - ELEC REHEAT 10 FAN - COOLING COIL NODE,FAN:ONOFF,FAN ON OFF 15,Outlet,1
 Non-Parent Node Connection,NODE 122,FAN:ONOFF,FAN ON OFF 16,Inlet,1
 Non-Parent Node Connection,UNITARY - DX HEAT PUMP - CYCLING - ELEC REHEAT 11 FAN - COOLING COIL NODE,FAN:ONOFF,FAN ON OFF 16,Outlet,1
 Non-Parent Node Connection,NODE 32,FAN:ONOFF,FAN ON OFF 6,Inlet,1
 Non-Parent Node Connection,UNITARY - DX HEAT PUMP - CYCLING - ELEC REHEAT 1 FAN - COOLING COIL NODE,FAN:ONOFF,FAN ON OFF 6,Outlet,1
 Non-Parent Node Connection,NODE 41,FAN:ONOFF,FAN ON OFF 7,Inlet,1
 Non-Parent Node Connection,UNITARY - DX HEAT PUMP - CYCLING - ELEC REHEAT 2 FAN - COOLING COIL NODE,FAN:ONOFF,FAN ON OFF 7,Outlet,1
 Non-Parent Node Connection,NODE 50,FAN:ONOFF,FAN ON OFF 8,Inlet,1
 Non-Parent Node Connection,UNITARY - DX HEAT PUMP - CYCLING - ELEC REHEAT 3 FAN - COOLING COIL NODE,FAN:ONOFF,FAN ON OFF 8,Outlet,1
 Non-Parent Node Connection,NODE 59,FAN:ONOFF,FAN ON OFF 9,Inlet,1
 Non-Parent Node Connection,UNITARY - DX HEAT PUMP - CYCLING - ELEC REHEAT 4 FAN - COOLING COIL NODE,FAN:ONOFF,FAN ON OFF 9,Outlet,1
 Non-Parent Node Connection,NODE 68,FAN:ONOFF,FAN ON OFF 10,Inlet,1
 Non-Parent Node Connection,UNITARY - DX HEAT PUMP - CYCLING - ELEC REHEAT 5 FAN - COOLING COIL NODE,FAN:ONOFF,FAN ON OFF 10,Outlet,1
 Non-Parent Node Connection,NODE 77,FAN:ONOFF,FAN ON OFF 11,Inlet,1
 Non-Parent Node Connection,UNITARY - DX HEAT PUMP - CYCLING - ELEC REHEAT 6 FAN - COOLING COIL NODE,FAN:ONOFF,FAN ON OFF 11,Outlet,1
 Non-Parent Node Connection,NODE 86,FAN:ONOFF,FAN ON OFF 12,Inlet,1
 Non-Parent Node Connection,UNITARY - DX HEAT PUMP - CYCLING - ELEC REHEAT 7 FAN - COOLING COIL NODE,FAN:ONOFF,FAN ON OFF 12,Outlet,1
 Non-Parent Node Connection,NODE 95,FAN:ONOFF,FAN ON OFF 13,Inlet,1
 Non-Parent Node Connection,UNITARY - DX HEAT PUMP - CYCLING - ELEC REHEAT 8 FAN - COOLING COIL NODE,FAN:ONOFF,FAN ON OFF 13,Outlet,1
 Non-Parent Node Connection,UNITARY - DX HEAT PUMP - CYCLING - ELEC REHEAT FAN - COOLING COIL NODE,COIL:COOLING:DX:SINGLESPEED,1 SPD DX CLG COIL 4,Inlet,1
 Non-Parent Node Connection,UNITARY - DX HEAT PUMP - CYCLING - ELEC REHEAT COOLING COIL - HEATING COIL NODE,COIL:COOLING:DX:SINGLESPEED,1 SPD DX CLG COIL 4,Outlet,1
 Non-Parent Node Connection,UNITARY - DX HEAT PUMP - CYCLING - ELEC REHEAT 9 FAN - COOLING COIL NODE,COIL:COOLING:DX:SINGLESPEED,1 SPD DX CLG COIL 13,Inlet,1
 Non-Parent Node Connection,UNITARY - DX HEAT PUMP - CYCLING - ELEC REHEAT 9 COOLING COIL - HEATING COIL NODE,COIL:COOLING:DX:SINGLESPEED,1 SPD DX CLG COIL 13,Outlet,1
 Non-Parent Node Connection,UNITARY - DX HEAT PUMP - CYCLING - ELEC REHEAT 10 FAN - COOLING COIL NODE,COIL:COOLING:DX:SINGLESPEED,1 SPD DX CLG COIL 14,Inlet,1
 Non-Parent Node Connection,UNITARY - DX HEAT PUMP - CYCLING - ELEC REHEAT 10 COOLING COIL - HEATING COIL NODE,COIL:COOLING:DX:SINGLESPEED,1 SPD DX CLG COIL 14,Outlet,1
 Non-Parent Node Connection,UNITARY - DX HEAT PUMP - CYCLING - ELEC REHEAT 11 FAN - COOLING COIL NODE,COIL:COOLING:DX:SINGLESPEED,1 SPD DX CLG COIL 15,Inlet,1
 Non-Parent Node Connection,UNITARY - DX HEAT PUMP - CYCLING - ELEC REHEAT 11 COOLING COIL - HEATING COIL NODE,COIL:COOLING:DX:SINGLESPEED,1 SPD DX CLG COIL 15,Outlet,1
 Non-Parent Node Connection,UNITARY - DX HEAT PUMP - CYCLING - ELEC REHEAT 1 FAN - COOLING COIL NODE,COIL:COOLING:DX:SINGLESPEED,1 SPD DX CLG COIL 5,Inlet,1
 Non-Parent Node Connection,UNITARY - DX HEAT PUMP - CYCLING - ELEC REHEAT 1 COOLING COIL - HEATING COIL NODE,COIL:COOLING:DX:SINGLESPEED,1 SPD DX CLG COIL 5,Outlet,1
 Non-Parent Node Connection,UNITARY - DX HEAT PUMP - CYCLING - ELEC REHEAT 2 FAN - COOLING COIL NODE,COIL:COOLING:DX:SINGLESPEED,1 SPD DX CLG COIL 6,Inlet,1
 Non-Parent Node Connection,UNITARY - DX HEAT PUMP - CYCLING - ELEC REHEAT 2 COOLING COIL - HEATING COIL NODE,COIL:COOLING:DX:SINGLESPEED,1 SPD DX CLG COIL 6,Outlet,1
 Non-Parent Node Connection,UNITARY - DX HEAT PUMP - CYCLING - ELEC REHEAT 3 FAN - COOLING COIL NODE,COIL:COOLING:DX:SINGLESPEED,1 SPD DX CLG COIL 7,Inlet,1
 Non-Parent Node Connection,UNITARY - DX HEAT PUMP - CYCLING - ELEC REHEAT 3 COOLING COIL - HEATING COIL NODE,COIL:COOLING:DX:SINGLESPEED,1 SPD DX CLG COIL 7,Outlet,1
 Non-Parent Node Connection,UNITARY - DX HEAT PUMP - CYCLING - ELEC REHEAT 4 FAN - COOLING COIL NODE,COIL:COOLING:DX:SINGLESPEED,1 SPD DX CLG COIL 8,Inlet,1
 Non-Parent Node Connection,UNITARY - DX HEAT PUMP - CYCLING - ELEC REHEAT 4 COOLING COIL - HEATING COIL NODE,COIL:COOLING:DX:SINGLESPEED,1 SPD DX CLG COIL 8,Outlet,1
 Non-Parent Node Connection,UNITARY - DX HEAT PUMP - CYCLING - ELEC REHEAT 5 FAN - COOLING COIL NODE,COIL:COOLING:DX:SINGLESPEED,1 SPD DX CLG COIL 9,Inlet,1
 Non-Parent Node Connection,UNITARY - DX HEAT PUMP - CYCLING - ELEC REHEAT 5 COOLING COIL - HEATING COIL NODE,COIL:COOLING:DX:SINGLESPEED,1 SPD DX CLG COIL 9,Outlet,1
 Non-Parent Node Connection,UNITARY - DX HEAT PUMP - CYCLING - ELEC REHEAT 6 FAN - COOLING COIL NODE,COIL:COOLING:DX:SINGLESPEED,1 SPD DX CLG COIL 10,Inlet,1
 Non-Parent Node Connection,UNITARY - DX HEAT PUMP - CYCLING - ELEC REHEAT 6 COOLING COIL - HEATING COIL NODE,COIL:COOLING:DX:SINGLESPEED,1 SPD DX CLG COIL 10,Outlet,1
 Non-Parent Node Connection,UNITARY - DX HEAT PUMP - CYCLING - ELEC REHEAT 7 FAN - COOLING COIL NODE,COIL:COOLING:DX:SINGLESPEED,1 SPD DX CLG COIL 11,Inlet,1
 Non-Parent Node Connection,UNITARY - DX HEAT PUMP - CYCLING - ELEC REHEAT 7 COOLING COIL - HEATING COIL NODE,COIL:COOLING:DX:SINGLESPEED,1 SPD DX CLG COIL 11,Outlet,1
 Non-Parent Node Connection,UNITARY - DX HEAT PUMP - CYCLING - ELEC REHEAT 8 FAN - COOLING COIL NODE,COIL:COOLING:DX:SINGLESPEED,1 SPD DX CLG COIL 12,Inlet,1
 Non-Parent Node Connection,UNITARY - DX HEAT PUMP - CYCLING - ELEC REHEAT 8 COOLING COIL - HEATING COIL NODE,COIL:COOLING:DX:SINGLESPEED,1 SPD DX CLG COIL 12,Outlet,1
 Non-Parent Node Connection,UNITARY - DX HEAT PUMP - CYCLING - ELEC REHEAT COOLING COIL - HEATING COIL NODE,COIL:HEATING:DX:SINGLESPEED,1 SPD DX HTG COIL 3,Inlet,1
 Non-Parent Node Connection,UNITARY - DX HEAT PUMP - CYCLING - ELEC REHEAT HEATING COIL - SUPPLEMENTAL COIL NODE,COIL:HEATING:DX:SINGLESPEED,1 SPD DX HTG COIL 3,Outlet,1
 Non-Parent Node Connection,UNITARY - DX HEAT PUMP - CYCLING - ELEC REHEAT 9 COOLING COIL - HEATING COIL NODE,COIL:HEATING:DX:SINGLESPEED,1 SPD DX HTG COIL 12,Inlet,1
 Non-Parent Node Connection,UNITARY - DX HEAT PUMP - CYCLING - ELEC REHEAT 9 HEATING COIL - SUPPLEMENTAL COIL NODE,COIL:HEATING:DX:SINGLESPEED,1 SPD DX HTG COIL 12,Outlet,1
 Non-Parent Node Connection,UNITARY - DX HEAT PUMP - CYCLING - ELEC REHEAT 10 COOLING COIL - HEATING COIL NODE,COIL:HEATING:DX:SINGLESPEED,1 SPD DX HTG COIL 13,Inlet,1
 Non-Parent Node Connection,UNITARY - DX HEAT PUMP - CYCLING - ELEC REHEAT 10 HEATING COIL - SUPPLEMENTAL COIL NODE,COIL:HEATING:DX:SINGLESPEED,1 SPD DX HTG COIL 13,Outlet,1
 Non-Parent Node Connection,UNITARY - DX HEAT PUMP - CYCLING - ELEC REHEAT 11 COOLING COIL - HEATING COIL NODE,COIL:HEATING:DX:SINGLESPEED,1 SPD DX HTG COIL 14,Inlet,1
 Non-Parent Node Connection,UNITARY - DX HEAT PUMP - CYCLING - ELEC REHEAT 11 HEATING COIL - SUPPLEMENTAL COIL NODE,COIL:HEATING:DX:SINGLESPEED,1 SPD DX HTG COIL 14,Outlet,1
 Non-Parent Node Connection,UNITARY - DX HEAT PUMP - CYCLING - ELEC REHEAT 1 COOLING COIL - HEATING COIL NODE,COIL:HEATING:DX:SINGLESPEED,1 SPD DX HTG COIL 4,Inlet,1
 Non-Parent Node Connection,UNITARY - DX HEAT PUMP - CYCLING - ELEC REHEAT 1 HEATING COIL - SUPPLEMENTAL COIL NODE,COIL:HEATING:DX:SINGLESPEED,1 SPD DX HTG COIL 4,Outlet,1
 Non-Parent Node Connection,UNITARY - DX HEAT PUMP - CYCLING - ELEC REHEAT 2 COOLING COIL - HEATING COIL NODE,COIL:HEATING:DX:SINGLESPEED,1 SPD DX HTG COIL 5,Inlet,1
 Non-Parent Node Connection,UNITARY - DX HEAT PUMP - CYCLING - ELEC REHEAT 2 HEATING COIL - SUPPLEMENTAL COIL NODE,COIL:HEATING:DX:SINGLESPEED,1 SPD DX HTG COIL 5,Outlet,1
 Non-Parent Node Connection,UNITARY - DX HEAT PUMP - CYCLING - ELEC REHEAT 3 COOLING COIL - HEATING COIL NODE,COIL:HEATING:DX:SINGLESPEED,1 SPD DX HTG COIL 6,Inlet,1
 Non-Parent Node Connection,UNITARY - DX HEAT PUMP - CYCLING - ELEC REHEAT 3 HEATING COIL - SUPPLEMENTAL COIL NODE,COIL:HEATING:DX:SINGLESPEED,1 SPD DX HTG COIL 6,Outlet,1
 Non-Parent Node Connection,UNITARY - DX HEAT PUMP - CYCLING - ELEC REHEAT 4 COOLING COIL - HEATING COIL NODE,COIL:HEATING:DX:SINGLESPEED,1 SPD DX HTG COIL 7,Inlet,1
 Non-Parent Node Connection,UNITARY - DX HEAT PUMP - CYCLING - ELEC REHEAT 4 HEATING COIL - SUPPLEMENTAL COIL NODE,COIL:HEATING:DX:SINGLESPEED,1 SPD DX HTG COIL 7,Outlet,1
 Non-Parent Node Connection,UNITARY - DX HEAT PUMP - CYCLING - ELEC REHEAT 5 COOLING COIL - HEATING COIL NODE,COIL:HEATING:DX:SINGLESPEED,1 SPD DX HTG COIL 8,Inlet,1
 Non-Parent Node Connection,UNITARY - DX HEAT PUMP - CYCLING - ELEC REHEAT 5 HEATING COIL - SUPPLEMENTAL COIL NODE,COIL:HEATING:DX:SINGLESPEED,1 SPD DX HTG COIL 8,Outlet,1
 Non-Parent Node Connection,UNITARY - DX HEAT PUMP - CYCLING - ELEC REHEAT 6 COOLING COIL - HEATING COIL NODE,COIL:HEATING:DX:SINGLESPEED,1 SPD DX HTG COIL 9,Inlet,1
 Non-Parent Node Connection,UNITARY - DX HEAT PUMP - CYCLING - ELEC REHEAT 6 HEATING COIL - SUPPLEMENTAL COIL NODE,COIL:HEATING:DX:SINGLESPEED,1 SPD DX HTG COIL 9,Outlet,1
 Non-Parent Node Connection,UNITARY - DX HEAT PUMP - CYCLING - ELEC REHEAT 7 COOLING COIL - HEATING COIL NODE,COIL:HEATING:DX:SINGLESPEED,1 SPD DX HTG COIL 10,Inlet,1
 Non-Parent Node Connection,UNITARY - DX HEAT PUMP - CYCLING - ELEC REHEAT 7 HEATING COIL - SUPPLEMENTAL COIL NODE,COIL:HEATING:DX:SINGLESPEED,1 SPD DX HTG COIL 10,Outlet,1
 Non-Parent Node Connection,UNITARY - DX HEAT PUMP - CYCLING - ELEC REHEAT 8 COOLING COIL - HEATING COIL NODE,COIL:HEATING:DX:SINGLESPEED,1 SPD DX HTG COIL 11,Inlet,1
 Non-Parent Node Connection,UNITARY - DX HEAT PUMP - CYCLING - ELEC REHEAT 8 HEATING COIL - SUPPLEMENTAL COIL NODE,COIL:HEATING:DX:SINGLESPEED,1 SPD DX HTG COIL 11,Outlet,1
 Non-Parent Node Connection,UNITARY - DX HEAT PUMP - CYCLING - ELEC REHEAT HEATING COIL - SUPPLEMENTAL COIL NODE,COIL:HEATING:ELECTRIC,ELEC HTG COIL 5,Inlet,1
 Non-Parent Node Connection,NODE 14,COIL:HEATING:ELECTRIC,ELEC HTG COIL 5,Outlet,1
 Non-Parent Node Connection,UNITARY - DX HEAT PUMP - CYCLING - ELEC REHEAT 9 HEATING COIL - SUPPLEMENTAL COIL NODE,COIL:HEATING:ELECTRIC,ELEC HTG COIL 14,Inlet,1
 Non-Parent Node Connection,NODE 97,COIL:HEATING:ELECTRIC,ELEC HTG COIL 14,Outlet,1
 Non-Parent Node Connection,UNITARY - DX HEAT PUMP - CYCLING - ELEC REHEAT 10 HEATING COIL - SUPPLEMENTAL COIL NODE,COIL:HEATING:ELECTRIC,ELEC HTG COIL 15,Inlet,1
 Non-Parent Node Connection,NODE 106,COIL:HEATING:ELECTRIC,ELEC HTG COIL 15,Outlet,1
 Non-Parent Node Connection,UNITARY - DX HEAT PUMP - CYCLING - ELEC REHEAT 11 HEATING COIL - SUPPLEMENTAL COIL NODE,COIL:HEATING:ELECTRIC,ELEC HTG COIL 16,Inlet,1
 Non-Parent Node Connection,NODE 115,COIL:HEATING:ELECTRIC,ELEC HTG COIL 16,Outlet,1
 Non-Parent Node Connection,UNITARY - DX HEAT PUMP - CYCLING - ELEC REHEAT 1 HEATING COIL - SUPPLEMENTAL COIL NODE,COIL:HEATING:ELECTRIC,ELEC HTG COIL 6,Inlet,1
 Non-Parent Node Connection,NODE 25,COIL:HEATING:ELECTRIC,ELEC HTG COIL 6,Outlet,1
 Non-Parent Node Connection,UNITARY - DX HEAT PUMP - CYCLING - ELEC REHEAT 2 HEATING COIL - SUPPLEMENTAL COIL NODE,COIL:HEATING:ELECTRIC,ELEC HTG COIL 7,Inlet,1
 Non-Parent Node Connection,NODE 34,COIL:HEATING:ELECTRIC,ELEC HTG COIL 7,Outlet,1
 Non-Parent Node Connection,UNITARY - DX HEAT PUMP - CYCLING - ELEC REHEAT 3 HEATING COIL - SUPPLEMENTAL COIL NODE,COIL:HEATING:ELECTRIC,ELEC HTG COIL 8,Inlet,1
 Non-Parent Node Connection,NODE 43,COIL:HEATING:ELECTRIC,ELEC HTG COIL 8,Outlet,1
 Non-Parent Node Connection,UNITARY - DX HEAT PUMP - CYCLING - ELEC REHEAT 4 HEATING COIL - SUPPLEMENTAL COIL NODE,COIL:HEATING:ELECTRIC,ELEC HTG COIL 9,Inlet,1
 Non-Parent Node Connection,NODE 52,COIL:HEATING:ELECTRIC,ELEC HTG COIL 9,Outlet,1
 Non-Parent Node Connection,UNITARY - DX HEAT PUMP - CYCLING - ELEC REHEAT 5 HEATING COIL - SUPPLEMENTAL COIL NODE,COIL:HEATING:ELECTRIC,ELEC HTG COIL 10,Inlet,1
 Non-Parent Node Connection,NODE 61,COIL:HEATING:ELECTRIC,ELEC HTG COIL 10,Outlet,1
 Non-Parent Node Connection,UNITARY - DX HEAT PUMP - CYCLING - ELEC REHEAT 6 HEATING COIL - SUPPLEMENTAL COIL NODE,COIL:HEATING:ELECTRIC,ELEC HTG COIL 11,Inlet,1
 Non-Parent Node Connection,NODE 70,COIL:HEATING:ELECTRIC,ELEC HTG COIL 11,Outlet,1
 Non-Parent Node Connection,UNITARY - DX HEAT PUMP - CYCLING - ELEC REHEAT 7 HEATING COIL - SUPPLEMENTAL COIL NODE,COIL:HEATING:ELECTRIC,ELEC HTG COIL 12,Inlet,1
 Non-Parent Node Connection,NODE 79,COIL:HEATING:ELECTRIC,ELEC HTG COIL 12,Outlet,1
 Non-Parent Node Connection,UNITARY - DX HEAT PUMP - CYCLING - ELEC REHEAT 8 HEATING COIL - SUPPLEMENTAL COIL NODE,COIL:HEATING:ELECTRIC,ELEC HTG COIL 13,Inlet,1
 Non-Parent Node Connection,NODE 88,COIL:HEATING:ELECTRIC,ELEC HTG COIL 13,Outlet,1
