Program Version,EnergyPlus, Version 8.9.0-40101eaafd, YMD=2018.05.31 16:20
! <Version>, Version ID
 Version, 8.9
! <Timesteps per Hour>, #TimeSteps, Minutes per TimeStep {minutes}
 Timesteps per Hour,  6, 10
! <System Convergence Limits>, Minimum System TimeStep {minutes}, Max HVAC Iterations, Minimum Plant Iterations, Maximum Plant Iterations
 System Convergence Limits, 1, 20, 2, 8
! <Simulation Control>, Do Zone Sizing, Do System Sizing, Do Plant Sizing, Do Design Days, Do Weather Simulation, Do HVAC Sizing Simulation
 Simulation Control, Yes, Yes, No, Yes, Yes, No
! <Output Reporting Tolerances>, Tolerance for Time Heating Setpoint Not Met, Tolerance for Zone Cooling Setpoint Not Met Time
 Output Reporting Tolerances, 0.200, 0.200, 
! <Site:GroundTemperature:BuildingSurface>,Jan{C},Feb{C},Mar{C},Apr{C},May{C},Jun{C},Jul{C},Aug{C},Sep{C},Oct{C},Nov{C},Dec{C}
 Site:GroundTemperature:BuildingSurface,  18.00,  18.00,  18.00,  18.00,  18.00,  18.00,  18.00,  18.00,  18.00,  18.00,  18.00,  18.00
! <Site:GroundTemperature:FCfactorMethod>,Jan{C},Feb{C},Mar{C},Apr{C},May{C},Jun{C},Jul{C},Aug{C},Sep{C},Oct{C},Nov{C},Dec{C}
 Site:GroundTemperature:FCfactorMethod,  -1.17,  -4.55,  -5.47,  -4.67,  -0.10,   5.02,   9.83,  13.32,  14.34,  12.70,   8.75,   3.78
! <Site:GroundTemperature:Shallow>,Jan{C},Feb{C},Mar{C},Apr{C},May{C},Jun{C},Jul{C},Aug{C},Sep{C},Oct{C},Nov{C},Dec{C}
 Site:GroundTemperature:Shallow,  13.00,  13.00,  13.00,  13.00,  13.00,  13.00,  13.00,  13.00,  13.00,  13.00,  13.00,  13.00
! <Site:GroundTemperature:Deep>,Jan{C},Feb{C},Mar{C},Apr{C},May{C},Jun{C},Jul{C},Aug{C},Sep{C},Oct{C},Nov{C},Dec{C}
 Site:GroundTemperature:Deep,  16.00,  16.00,  16.00,  16.00,  16.00,  16.00,  16.00,  16.00,  16.00,  16.00,  16.00,  16.00
! <Site:GroundReflectance>,Jan{dimensionless},Feb{dimensionless},Mar{dimensionless},Apr{dimensionless},May{dimensionless},Jun{dimensionless},Jul{dimensionless},Aug{dimensionless},Sep{dimensionless},Oct{dimensionless},Nov{dimensionless},Dec{dimensionless}
 Site:GroundReflectance,  0.20,  0.20,  0.20,  0.20,  0.20,  0.20,  0.20,  0.20,  0.20,  0.20,  0.20,  0.20
! <Site:GroundReflectance:SnowModifier>, Normal, Daylighting {dimensionless}
 Site:GroundReflectance:SnowModifier,   1.000,   1.000
! <Site:GroundReflectance:Snow>,Jan{dimensionless},Feb{dimensionless},Mar{dimensionless},Apr{dimensionless},May{dimensionless},Jun{dimensionless},Jul{dimensionless},Aug{dimensionless},Sep{dimensionless},Oct{dimensionless},Nov{dimensionless},Dec{dimensionless}
 Site:GroundReflectance:Snow,  0.20,  0.20,  0.20,  0.20,  0.20,  0.20,  0.20,  0.20,  0.20,  0.20,  0.20,  0.20
! <Site:GroundReflectance:Snow:Daylighting>,Jan{dimensionless},Feb{dimensionless},Mar{dimensionless},Apr{dimensionless},May{dimensionless},Jun{dimensionless},Jul{dimensionless},Aug{dimensionless},Sep{dimensionless},Oct{dimensionless},Nov{dimensionless},Dec{dimensionless}
 Site:GroundReflectance:Snow:Daylighting,  0.20,  0.20,  0.20,  0.20,  0.20,  0.20,  0.20,  0.20,  0.20,  0.20,  0.20,  0.20
! <Environment:Weather Station>,Wind Sensor Height Above Ground {m},Wind Speed Profile Exponent {},Wind Speed Profile Boundary Layer Thickness {m},Air Temperature Sensor Height Above Ground {m},Wind Speed Modifier Coefficient-Internal,Temperature Modifier Coefficient-Internal
Environment:Weather Station,10.000,0.140,270.000,1.500,1.586,9.750E-003
! <Site:Location>, Location Name, Latitude {N+/S- Deg}, Longitude {E+/W- Deg},  Time Zone Number {GMT+/-}, Elevation {m},  Standard Pressure at Elevation {Pa}, Standard RhoAir at Elevation
Site:Location,Anchorage Merrill Field AK USA TMY3 WMO#=702735,61.22,-149.85,-9.00,42.00,100821,1.1983
! <Building Information>, Building Name,North Axis {deg},Terrain,  Loads Convergence Tolerance Value,Temperature Convergence Tolerance Value,  Solar Distribution,Maximum Number of Warmup Days,Minimum Number of Warmup Days
 Building Information,KA2 A Flatroof Sample Building,225.000,Suburbs,4.00000E-002,0.40000,FullExterior,25,6
! <Inside Convection Algorithm>, Algorithm {Simple | TARP | CeilingDiffuser | AdaptiveConvectionAlgorithm}
Inside Convection Algorithm,TARP
! <Outside Convection Algorithm>, Algorithm {SimpleCombined | TARP | MoWitt | DOE-2 | AdaptiveConvectionAlgorithm}
Outside Convection Algorithm,DOE-2
! <Sky Radiance Distribution>, Value {Anisotropic}
Sky Radiance Distribution,Anisotropic
! <Zone Air Solution Algorithm>, Value {ThirdOrderBackwardDifference | AnalyticalSolution | EulerMethod}
 Zone Air Solution Algorithm, ThirdOrderBackwardDifference
! <Zone Air Carbon Dioxide Balance Simulation>, Simulation {Yes/No}, Carbon Dioxide Concentration
 Zone Air Carbon Dioxide Balance Simulation, No,N/A
! <Zone Air Generic Contaminant Balance Simulation>, Simulation {Yes/No}, Generic Contaminant Concentration
 Zone Air Generic Contaminant Balance Simulation, No,N/A
! <Zone Air Mass Flow Balance Simulation>, Enforce Mass Balance, Adjust Zone Mixing, Adjust Zone Infiltration {AddInfiltration | AdjustInfiltration | None}, Infiltration Zones {MixingSourceZonesOnly | AllZones}
 Zone Air Mass Flow Balance Simulation, No,N/A,N/A,N/A
! <HVACSystemRootFindingAlgorithm>, Value {RegulaFalsi | Bisection | BisectionThenRegulaFalsi | RegulaFalsiThenBisection}
 HVACSystemRootFindingAlgorithm, RegulaFalsi
! <Environment:Site Atmospheric Variation>,Wind Speed Profile Exponent {},Wind Speed Profile Boundary Layer Thickness {m},Air Temperature Gradient Coefficient {K/m}
Environment:Site Atmospheric Variation,0.220,370.000,6.500000E-003
! <Surface Geometry>,Starting Corner,Vertex Input Direction,Coordinate System,Daylight Reference Point Coordinate System,Rectangular (Simple) Surface Coordinate System
 Surface Geometry,UpperLeftCorner,Counterclockwise,RelativeCoordinateSystem,RelativeCoordinateSystem,RelativeToZoneOrigin
! <Surface Heat Transfer Algorithm>, Value {CTF - ConductionTransferFunction | EMPD - MoisturePenetrationDepthConductionTransferFunction | CondFD - ConductionFiniteDifference | HAMT - CombinedHeatAndMoistureFiniteElement} - Description,Inside Surface Max Temperature Limit{C}, Surface Convection Coefficient Lower Limit {W/m2-K}, Surface Convection Coefficient Upper Limit {W/m2-K}
Surface Heat Transfer Algorithm, CTF - ConductionTransferFunction,200,0.10,1000.0
! <Shading Summary>, Number of Fixed Detached Shades, Number of Building Detached Shades, Number of Attached Shades
 Shading Summary,0,0,18
! <Zone Summary>, Number of Zones, Number of Zone Surfaces, Number of SubSurfaces
 Zone Summary,12,174,66
! <Zone Information>,Zone Name,North Axis {deg},Origin X-Coordinate {m},Origin Y-Coordinate {m},Origin Z-Coordinate {m},Centroid X-Coordinate {m},Centroid Y-Coordinate {m},Centroid Z-Coordinate {m},Type,Zone Multiplier,Zone List Multiplier,Minimum X {m},Maximum X {m},Minimum Y {m},Maximum Y {m},Minimum Z {m},Maximum Z {m},Ceiling Height {m},Volume {m3},Zone Inside Convection Algorithm {Simple-Detailed-CeilingDiffuser-TrombeWall},Zone Outside Convection Algorithm {Simple-Detailed-Tarp-MoWitt-DOE-2-BLAST}, Floor Area {m2},Exterior Gross Wall Area {m2},Exterior Net Wall Area {m2},Exterior Window Area {m2}, Number of Surfaces, Number of SubSurfaces, Number of Shading SubSurfaces,  Part of Total Building Area
 Zone Information, 01_A1,0.0,19.48,4.60,0.00,-16.83,5.15,1.68,1,1,1,-22.20,-11.46,-0.22,10.52,0.00,3.35,3.35,193.12,CeilingDiffuser,DOE-2,57.60,56.55,48.29,6.31,7,3,2,Yes
 Zone Information, 01_A2,0.0,2.46,8.26,0.00,-10.49,-1.28,1.68,1,1,1,-16.63,-5.89,-6.68,4.95,0.00,3.35,3.35,208.70,TARP,DOE-2,62.25,85.84,77.06,6.83,8,4,2,Yes
 Zone Information, 01_B2,0.0,2.16,21.21,0.00,-19.24,-10.63,1.68,1,1,1,-26.33,-12.32,-16.17,-2.37,0.00,3.35,3.35,324.46,CeilingDiffuser,DOE-2,96.77,99.13,83.98,13.20,10,7,2,Yes
 Zone Information, 01_C1,0.0,18.92,25.63,1.26E-030,-24.61,-1.79,1.68,1,1,1,-31.50,-17.82,-9.92,6.25,6.28E-031,3.35,3.35,380.95,CeilingDiffuser,DOE-2,113.62,96.74,80.17,14.63,11,8,2,Yes
 Zone Information, 02_A1,0.0,19.48,4.60,3.35,-16.83,5.15,5.03,1,1,1,-22.20,-11.46,-0.22,10.52,3.35,6.71,3.35,193.12,CeilingDiffuser,DOE-2,57.60,56.55,47.80,6.79,7,3,2,Yes
 Zone Information, 02_A2,0.0,2.46,8.26,3.35,-10.49,-1.28,5.03,1,1,1,-16.63,-5.89,-6.68,4.95,3.35,6.71,3.35,208.70,TARP,DOE-2,62.25,85.84,76.33,7.56,8,4,2,Yes
 Zone Information, 02_B2,0.0,2.16,21.21,3.35,-19.24,-10.63,5.03,1,1,1,-26.33,-12.32,-16.17,-2.37,3.35,6.71,3.35,324.46,CeilingDiffuser,DOE-2,96.77,99.13,81.69,15.49,10,7,2,Yes
 Zone Information, 02_C1,0.0,18.92,25.63,3.35,-24.61,-1.79,5.03,1,1,1,-31.50,-17.82,-9.92,6.25,3.35,6.71,3.35,380.95,CeilingDiffuser,DOE-2,113.62,96.74,77.21,17.58,11,8,2,Yes
 Zone Information, 03_A1,0.0,19.48,4.60,6.71,-16.83,5.15,8.38,1,1,1,-22.20,-11.46,-0.22,10.52,6.71,10.06,3.35,193.12,CeilingDiffuser,DOE-2,57.60,56.55,47.80,6.79,7,3,0,Yes
 Zone Information, 03_A2,0.0,2.46,8.26,6.71,-10.49,-1.28,8.38,1,1,1,-16.63,-5.89,-6.68,4.95,6.71,10.06,3.35,208.70,CeilingDiffuser,DOE-2,62.25,85.84,76.33,7.56,8,4,0,Yes
 Zone Information, 03_B2,0.0,2.16,21.21,6.71,-19.24,-10.63,8.38,1,1,1,-26.33,-12.32,-16.17,-2.37,6.71,10.06,3.35,324.46,CeilingDiffuser,DOE-2,96.77,99.13,81.69,15.49,10,7,0,Yes
 Zone Information, 03_C1,0.0,18.92,25.63,6.71,-24.61,-1.79,8.38,1,1,1,-31.50,-17.82,-9.92,6.25,6.71,10.06,3.35,380.95,CeilingDiffuser,DOE-2,113.62,96.74,77.21,17.58,11,8,2,Yes
! <Zone Internal Gains Nominal>,Zone Name, Floor Area {m2},# Occupants,Area per Occupant {m2/person},Occupant per Area {person/m2},Interior Lighting {W/m2},Electric Load {W/m2},Gas Load {W/m2},Other Load {W/m2},Hot Water Eq {W/m2},Steam Equipment {W/m2},Sum Loads per Area {W/m2},Outdoor Controlled Baseboard Heat
 Zone Internal Gains Nominal, 01_A1,57.60,1.6,37.161,2.691E-002,4.127,87.268,0.000,0.000,0.000,0.000,91.395,No
 Zone Internal Gains Nominal, 01_A2,62.25,1.6,40.158,2.490E-002,3.729,80.755,0.000,0.000,0.000,0.000,84.484,No
 Zone Internal Gains Nominal, 01_B2,96.77,2.5,39.180,2.552E-002,3.260,56.045,0.000,0.000,0.000,0.000,59.305,No
 Zone Internal Gains Nominal, 01_C1,113.62,3.4,33.516,2.984E-002,3.085,49.676,0.000,0.000,0.000,0.000,52.761,No
 Zone Internal Gains Nominal, 02_A1,57.60,1.6,37.161,2.691E-002,4.127,87.268,0.000,0.000,0.000,0.000,91.395,No
 Zone Internal Gains Nominal, 02_A2,62.25,1.6,40.158,2.490E-002,3.729,80.755,0.000,0.000,0.000,0.000,84.484,No
 Zone Internal Gains Nominal, 02_B2,96.77,2.5,39.180,2.552E-002,3.260,56.045,0.000,0.000,0.000,0.000,59.305,No
 Zone Internal Gains Nominal, 02_C1,113.62,3.4,33.516,2.984E-002,3.085,49.676,0.000,0.000,0.000,0.000,52.761,No
 Zone Internal Gains Nominal, 03_A1,57.60,1.6,37.161,2.691E-002,4.127,87.268,0.000,0.000,0.000,0.000,91.395,No
 Zone Internal Gains Nominal, 03_A2,62.25,1.6,40.158,2.490E-002,3.729,80.755,0.000,0.000,0.000,0.000,84.484,No
 Zone Internal Gains Nominal, 03_B2,96.77,2.5,39.180,2.552E-002,3.260,56.045,0.000,0.000,0.000,0.000,59.305,No
 Zone Internal Gains Nominal, 03_C1,113.62,3.4,33.516,2.984E-002,3.085,49.676,0.000,0.000,0.000,0.000,52.761,No
! <People Internal Gains Nominal>,Name,Schedule Name,Zone Name,Zone Floor Area {m2},# Zone Occupants,Number of People {},People/Floor Area {person/m2},Floor Area per person {m2/person},Fraction Radiant,Fraction Convected,Sensible Fraction Calculation,Activity level,ASHRAE 55 Warnings,Carbon Dioxide Generation Rate,Nominal Minimum Number of People,Nominal Maximum Number of People
 People Internal Gains Nominal, 01_A1 PEOPLE 1,OCCPROTOCOL,01_A1,57.60,1.6,1.6,2.691E-002,37.161,0.300,0.700,AutoCalculate,MIDRISEAPARTMENT ACTIVITYDOE,No,3.8200E-008,0,2
 People Internal Gains Nominal, 02_A1 PEOPLE 1,OCCPROTOCOL,02_A1,57.60,1.6,1.6,2.691E-002,37.161,0.300,0.700,AutoCalculate,MIDRISEAPARTMENT ACTIVITYDOE,No,3.8200E-008,0,2
 People Internal Gains Nominal, 03_A1 PEOPLE 1,OCCPROTOCOL,03_A1,57.60,1.6,1.6,2.691E-002,37.161,0.300,0.700,AutoCalculate,MIDRISEAPARTMENT ACTIVITYDOE,No,3.8200E-008,0,2
 People Internal Gains Nominal, 01_A2 PEOPLE 2,OCCPROTOCOL,01_A2,62.25,1.6,1.6,2.490E-002,40.158,0.300,0.700,AutoCalculate,MIDRISEAPARTMENT ACTIVITYDOE,No,3.8200E-008,0,2
 People Internal Gains Nominal, 02_A2 PEOPLE 2,OCCPROTOCOL,02_A2,62.25,1.6,1.6,2.490E-002,40.158,0.300,0.700,AutoCalculate,MIDRISEAPARTMENT ACTIVITYDOE,No,3.8200E-008,0,2
 People Internal Gains Nominal, 03_A2 PEOPLE 2,OCCPROTOCOL,03_A2,62.25,1.6,1.6,2.490E-002,40.158,0.300,0.700,AutoCalculate,MIDRISEAPARTMENT ACTIVITYDOE,No,3.8200E-008,0,2
 People Internal Gains Nominal, 01_B2 PEOPLE 6,OCCPROTOCOL,01_B2,96.77,2.5,2.5,2.552E-002,39.180,0.300,0.700,AutoCalculate,MIDRISEAPARTMENT ACTIVITYDOE,No,3.8200E-008,1,2
 People Internal Gains Nominal, 02_B2 PEOPLE 6,OCCPROTOCOL,02_B2,96.77,2.5,2.5,2.552E-002,39.180,0.300,0.700,AutoCalculate,MIDRISEAPARTMENT ACTIVITYDOE,No,3.8200E-008,1,2
 People Internal Gains Nominal, 03_B2 PEOPLE 6,OCCPROTOCOL,03_B2,96.77,2.5,2.5,2.552E-002,39.180,0.300,0.700,AutoCalculate,MIDRISEAPARTMENT ACTIVITYDOE,No,3.8200E-008,1,2
 People Internal Gains Nominal, 01_C1 PEOPLE 7,OCCPROTOCOL,01_C1,113.62,3.4,3.4,2.984E-002,33.516,0.300,0.700,AutoCalculate,MIDRISEAPARTMENT ACTIVITYDOE,No,3.8200E-008,1,3
 People Internal Gains Nominal, 02_C1 PEOPLE 7,OCCPROTOCOL,02_C1,113.62,3.4,3.4,2.984E-002,33.516,0.300,0.700,AutoCalculate,MIDRISEAPARTMENT ACTIVITYDOE,No,3.8200E-008,1,3
 People Internal Gains Nominal, 03_C1 PEOPLE 7,OCCPROTOCOL,03_C1,113.62,3.4,3.4,2.984E-002,33.516,0.300,0.700,AutoCalculate,MIDRISEAPARTMENT ACTIVITYDOE,No,3.8200E-008,1,3
! <Lights Internal Gains Nominal>,Name,Schedule Name,Zone Name,Zone Floor Area {m2},# Zone Occupants,Lighting Level {W},Lights/Floor Area {W/m2},Lights per person {W/person},Fraction Return Air,Fraction Radiant,Fraction Short Wave,Fraction Convected,Fraction Replaceable,End-Use Category,Nominal Minimum Lighting Level {W},Nominal Maximum Lighting Level {W}
 Lights Internal Gains Nominal, 01_A1 LIGHTS 2,MIDRISEAPARTMENT APARTMENT LIGHTDOE,01_A1,57.60,1.6,237.708,4.127,153.360,0.000,0.000,0.000,1.000,1.000,General,4.754,237.708
 Lights Internal Gains Nominal, 02_A1 LIGHTS 2,MIDRISEAPARTMENT APARTMENT LIGHTDOE,02_A1,57.60,1.6,237.708,4.127,153.360,0.000,0.000,0.000,1.000,1.000,General,4.754,237.708
 Lights Internal Gains Nominal, 03_A1 LIGHTS 2,MIDRISEAPARTMENT APARTMENT LIGHTDOE,03_A1,57.60,1.6,237.708,4.127,153.360,0.000,0.000,0.000,1.000,1.000,General,4.754,237.708
 Lights Internal Gains Nominal, 01_A2 LIGHTS 3,MIDRISEAPARTMENT APARTMENT LIGHTDOE,01_A2,62.25,1.6,232.088,3.729,149.734,0.000,0.000,0.000,1.000,1.000,General,4.642,232.088
 Lights Internal Gains Nominal, 02_A2 LIGHTS 3,MIDRISEAPARTMENT APARTMENT LIGHTDOE,02_A2,62.25,1.6,232.088,3.729,149.734,0.000,0.000,0.000,1.000,1.000,General,4.642,232.088
 Lights Internal Gains Nominal, 03_A2 LIGHTS 3,MIDRISEAPARTMENT APARTMENT LIGHTDOE,03_A2,62.25,1.6,232.088,3.729,149.734,0.000,0.000,0.000,1.000,1.000,General,4.642,232.088
 Lights Internal Gains Nominal, 01_B2 LIGHTS 7,MIDRISEAPARTMENT APARTMENT LIGHTDOE,01_B2,96.77,2.5,315.521,3.260,127.741,0.000,0.000,0.000,1.000,1.000,General,6.310,315.521
 Lights Internal Gains Nominal, 02_B2 LIGHTS 7,MIDRISEAPARTMENT APARTMENT LIGHTDOE,02_B2,96.77,2.5,315.521,3.260,127.741,0.000,0.000,0.000,1.000,1.000,General,6.310,315.521
 Lights Internal Gains Nominal, 03_B2 LIGHTS 7,MIDRISEAPARTMENT APARTMENT LIGHTDOE,03_B2,96.77,2.5,315.521,3.260,127.741,0.000,0.000,0.000,1.000,1.000,General,6.310,315.521
 Lights Internal Gains Nominal, 01_C1 LIGHTS 8,MIDRISEAPARTMENT APARTMENT LIGHTDOE,01_C1,113.62,3.4,350.512,3.085,103.396,0.000,0.000,0.000,1.000,1.000,General,7.010,350.512
 Lights Internal Gains Nominal, 02_C1 LIGHTS 8,MIDRISEAPARTMENT APARTMENT LIGHTDOE,02_C1,113.62,3.4,350.512,3.085,103.396,0.000,0.000,0.000,1.000,1.000,General,7.010,350.512
 Lights Internal Gains Nominal, 03_C1 LIGHTS 8,MIDRISEAPARTMENT APARTMENT LIGHTDOE,03_C1,113.62,3.4,350.512,3.085,103.396,0.000,0.000,0.000,1.000,1.000,General,7.010,350.512
! <ElectricEquipment Internal Gains Nominal>,Name,Schedule Name,Zone Name,Zone Floor Area {m2},# Zone Occupants,Equipment Level {W},Equipment/Floor Area {W/m2},Equipment per person {W/person},Fraction Latent,Fraction Radiant,Fraction Lost,Fraction Convected,End-Use SubCategory,Nominal Minimum Equipment Level {W},Nominal Maximum Equipment Level {W}
 ElectricEquipment Internal Gains Nominal, 01_A1 ELECTRIC EQUIPMENT 19,APARTMENTMIDRISE EQP_CLOTHESDRYER,01_A1,57.60,1.6,1699.556,29.506,1096.487,5.000E-002,0.150,0.000,0.800,General,3.399,1699.556
 ElectricEquipment Internal Gains Nominal, 02_A1 ELECTRIC EQUIPMENT 19,APARTMENTMIDRISE EQP_CLOTHESDRYER,02_A1,57.60,1.6,1699.556,29.506,1096.487,5.000E-002,0.150,0.000,0.800,General,3.399,1699.556
 ElectricEquipment Internal Gains Nominal, 03_A1 ELECTRIC EQUIPMENT 19,APARTMENTMIDRISE EQP_CLOTHESDRYER,03_A1,57.60,1.6,1699.556,29.506,1096.487,5.000E-002,0.150,0.000,0.800,General,3.399,1699.556
 ElectricEquipment Internal Gains Nominal, 01_A1 ELECTRIC EQUIPMENT 20,APARTMENTMIDRISE EQP_CLOTHESWASHER,01_A1,57.60,1.6,350.000,6.076,225.806,0.000,0.800,0.000,0.200,General,1.225,350.000
 ElectricEquipment Internal Gains Nominal, 02_A1 ELECTRIC EQUIPMENT 20,APARTMENTMIDRISE EQP_CLOTHESWASHER,02_A1,57.60,1.6,350.000,6.076,225.806,0.000,0.800,0.000,0.200,General,1.225,350.000
 ElectricEquipment Internal Gains Nominal, 03_A1 ELECTRIC EQUIPMENT 20,APARTMENTMIDRISE EQP_CLOTHESWASHER,03_A1,57.60,1.6,350.000,6.076,225.806,0.000,0.800,0.000,0.200,General,1.225,350.000
 ElectricEquipment Internal Gains Nominal, 01_A1 ELECTRIC EQUIPMENT 22,APARTMENTMIDRISE EQP_DISHWASHER,01_A1,57.60,1.6,780.000,13.542,503.226,0.150,0.600,0.000,0.250,General,2.730,780.000
 ElectricEquipment Internal Gains Nominal, 02_A1 ELECTRIC EQUIPMENT 22,APARTMENTMIDRISE EQP_DISHWASHER,02_A1,57.60,1.6,780.000,13.542,503.226,0.150,0.600,0.000,0.250,General,2.730,780.000
 ElectricEquipment Internal Gains Nominal, 03_A1 ELECTRIC EQUIPMENT 22,APARTMENTMIDRISE EQP_DISHWASHER,03_A1,57.60,1.6,780.000,13.542,503.226,0.150,0.600,0.000,0.250,General,2.730,780.000
 ElectricEquipment Internal Gains Nominal, 01_A1 ELECTRIC EQUIPMENT 23,APARTMENTMIDRISE EQP_RANGE,01_A1,57.60,1.6,250.000,4.340,161.290,0.200,0.730,0.000,7.000E-002,General,0.800,250.000
 ElectricEquipment Internal Gains Nominal, 02_A1 ELECTRIC EQUIPMENT 23,APARTMENTMIDRISE EQP_RANGE,02_A1,57.60,1.6,250.000,4.340,161.290,0.200,0.730,0.000,7.000E-002,General,0.800,250.000
 ElectricEquipment Internal Gains Nominal, 03_A1 ELECTRIC EQUIPMENT 23,APARTMENTMIDRISE EQP_RANGE,03_A1,57.60,1.6,250.000,4.340,161.290,0.200,0.730,0.000,7.000E-002,General,0.800,250.000
 ElectricEquipment Internal Gains Nominal, 01_A1 ELECTRIC EQUIPMENT 24,APARTMENTMIDRISE EQP_RANGE,01_A1,57.60,1.6,176.471,3.064,113.852,0.300,0.400,0.000,0.300,General,0.565,176.471
 ElectricEquipment Internal Gains Nominal, 02_A1 ELECTRIC EQUIPMENT 24,APARTMENTMIDRISE EQP_RANGE,02_A1,57.60,1.6,176.471,3.064,113.852,0.300,0.400,0.000,0.300,General,0.565,176.471
 ElectricEquipment Internal Gains Nominal, 03_A1 ELECTRIC EQUIPMENT 24,APARTMENTMIDRISE EQP_RANGE,03_A1,57.60,1.6,176.471,3.064,113.852,0.300,0.400,0.000,0.300,General,0.565,176.471
 ElectricEquipment Internal Gains Nominal, 01_A1 ELECTRIC EQUIPMENT 25,APARTMENTMIDRISE EQP_REFRIGERATOR,01_A1,57.60,1.6,1200.000,20.833,774.194,0.000,1.000,0.000,0.000,General,43.476,1200.000
 ElectricEquipment Internal Gains Nominal, 02_A1 ELECTRIC EQUIPMENT 25,APARTMENTMIDRISE EQP_REFRIGERATOR,02_A1,57.60,1.6,1200.000,20.833,774.194,0.000,1.000,0.000,0.000,General,43.476,1200.000
 ElectricEquipment Internal Gains Nominal, 03_A1 ELECTRIC EQUIPMENT 25,APARTMENTMIDRISE EQP_REFRIGERATOR,03_A1,57.60,1.6,1200.000,20.833,774.194,0.000,1.000,0.000,0.000,General,43.476,1200.000
 ElectricEquipment Internal Gains Nominal, 01_A1 ELECTRIC EQUIPMENT 26,APARTMENTMIDRISE EQP_APT_SCH,01_A1,57.60,1.6,350.000,6.076,225.806,0.200,0.730,0.000,7.000E-002,General,8.540,350.000
 ElectricEquipment Internal Gains Nominal, 02_A1 ELECTRIC EQUIPMENT 26,APARTMENTMIDRISE EQP_APT_SCH,02_A1,57.60,1.6,350.000,6.076,225.806,0.200,0.730,0.000,7.000E-002,General,8.540,350.000
 ElectricEquipment Internal Gains Nominal, 03_A1 ELECTRIC EQUIPMENT 26,APARTMENTMIDRISE EQP_APT_SCH,03_A1,57.60,1.6,350.000,6.076,225.806,0.200,0.730,0.000,7.000E-002,General,8.540,350.000
 ElectricEquipment Internal Gains Nominal, 01_A1 ELECTRIC EQUIPMENT 3,APARTMENTMIDRISE EQP_RANGE,01_A1,57.60,1.6,220.588,3.830,142.315,0.300,0.400,0.000,0.300,General,0.706,220.588
 ElectricEquipment Internal Gains Nominal, 02_A1 ELECTRIC EQUIPMENT 3,APARTMENTMIDRISE EQP_RANGE,02_A1,57.60,1.6,220.588,3.830,142.315,0.300,0.400,0.000,0.300,General,0.706,220.588
 ElectricEquipment Internal Gains Nominal, 03_A1 ELECTRIC EQUIPMENT 3,APARTMENTMIDRISE EQP_RANGE,03_A1,57.60,1.6,220.588,3.830,142.315,0.300,0.400,0.000,0.300,General,0.706,220.588
 ElectricEquipment Internal Gains Nominal, 01_A2 ELECTRIC EQUIPMENT 13,APARTMENTMIDRISE EQP_RANGE,01_A2,62.25,1.6,176.471,2.835,113.852,0.300,0.400,0.000,0.300,General,0.565,176.471
 ElectricEquipment Internal Gains Nominal, 02_A2 ELECTRIC EQUIPMENT 13,APARTMENTMIDRISE EQP_RANGE,02_A2,62.25,1.6,176.471,2.835,113.852,0.300,0.400,0.000,0.300,General,0.565,176.471
 ElectricEquipment Internal Gains Nominal, 03_A2 ELECTRIC EQUIPMENT 13,APARTMENTMIDRISE EQP_RANGE,03_A2,62.25,1.6,176.471,2.835,113.852,0.300,0.400,0.000,0.300,General,0.565,176.471
 ElectricEquipment Internal Gains Nominal, 01_A2 ELECTRIC EQUIPMENT 27,APARTMENTMIDRISE EQP_CLOTHESDRYER,01_A2,62.25,1.6,1699.556,27.304,1096.487,5.000E-002,0.150,0.000,0.800,General,3.399,1699.556
 ElectricEquipment Internal Gains Nominal, 02_A2 ELECTRIC EQUIPMENT 27,APARTMENTMIDRISE EQP_CLOTHESDRYER,02_A2,62.25,1.6,1699.556,27.304,1096.487,5.000E-002,0.150,0.000,0.800,General,3.399,1699.556
 ElectricEquipment Internal Gains Nominal, 03_A2 ELECTRIC EQUIPMENT 27,APARTMENTMIDRISE EQP_CLOTHESDRYER,03_A2,62.25,1.6,1699.556,27.304,1096.487,5.000E-002,0.150,0.000,0.800,General,3.399,1699.556
 ElectricEquipment Internal Gains Nominal, 01_A2 ELECTRIC EQUIPMENT 28,APARTMENTMIDRISE EQP_CLOTHESWASHER,01_A2,62.25,1.6,350.000,5.623,225.806,0.000,0.800,0.000,0.200,General,1.225,350.000
 ElectricEquipment Internal Gains Nominal, 02_A2 ELECTRIC EQUIPMENT 28,APARTMENTMIDRISE EQP_CLOTHESWASHER,02_A2,62.25,1.6,350.000,5.623,225.806,0.000,0.800,0.000,0.200,General,1.225,350.000
 ElectricEquipment Internal Gains Nominal, 03_A2 ELECTRIC EQUIPMENT 28,APARTMENTMIDRISE EQP_CLOTHESWASHER,03_A2,62.25,1.6,350.000,5.623,225.806,0.000,0.800,0.000,0.200,General,1.225,350.000
 ElectricEquipment Internal Gains Nominal, 01_A2 ELECTRIC EQUIPMENT 30,APARTMENTMIDRISE EQP_DISHWASHER,01_A2,62.25,1.6,780.000,12.531,503.226,0.150,0.600,0.000,0.250,General,2.730,780.000
 ElectricEquipment Internal Gains Nominal, 02_A2 ELECTRIC EQUIPMENT 30,APARTMENTMIDRISE EQP_DISHWASHER,02_A2,62.25,1.6,780.000,12.531,503.226,0.150,0.600,0.000,0.250,General,2.730,780.000
 ElectricEquipment Internal Gains Nominal, 03_A2 ELECTRIC EQUIPMENT 30,APARTMENTMIDRISE EQP_DISHWASHER,03_A2,62.25,1.6,780.000,12.531,503.226,0.150,0.600,0.000,0.250,General,2.730,780.000
 ElectricEquipment Internal Gains Nominal, 01_A2 ELECTRIC EQUIPMENT 31,APARTMENTMIDRISE EQP_RANGE,01_A2,62.25,1.6,250.000,4.016,161.290,0.200,0.730,0.000,7.000E-002,General,0.800,250.000
 ElectricEquipment Internal Gains Nominal, 02_A2 ELECTRIC EQUIPMENT 31,APARTMENTMIDRISE EQP_RANGE,02_A2,62.25,1.6,250.000,4.016,161.290,0.200,0.730,0.000,7.000E-002,General,0.800,250.000
 ElectricEquipment Internal Gains Nominal, 03_A2 ELECTRIC EQUIPMENT 31,APARTMENTMIDRISE EQP_RANGE,03_A2,62.25,1.6,250.000,4.016,161.290,0.200,0.730,0.000,7.000E-002,General,0.800,250.000
 ElectricEquipment Internal Gains Nominal, 01_A2 ELECTRIC EQUIPMENT 32,APARTMENTMIDRISE EQP_RANGE,01_A2,62.25,1.6,220.588,3.544,142.315,0.300,0.400,0.000,0.300,General,0.706,220.588
 ElectricEquipment Internal Gains Nominal, 02_A2 ELECTRIC EQUIPMENT 32,APARTMENTMIDRISE EQP_RANGE,02_A2,62.25,1.6,220.588,3.544,142.315,0.300,0.400,0.000,0.300,General,0.706,220.588
 ElectricEquipment Internal Gains Nominal, 03_A2 ELECTRIC EQUIPMENT 32,APARTMENTMIDRISE EQP_RANGE,03_A2,62.25,1.6,220.588,3.544,142.315,0.300,0.400,0.000,0.300,General,0.706,220.588
 ElectricEquipment Internal Gains Nominal, 01_A2 ELECTRIC EQUIPMENT 33,APARTMENTMIDRISE EQP_REFRIGERATOR,01_A2,62.25,1.6,1200.000,19.279,774.194,0.000,1.000,0.000,0.000,General,43.476,1200.000
 ElectricEquipment Internal Gains Nominal, 02_A2 ELECTRIC EQUIPMENT 33,APARTMENTMIDRISE EQP_REFRIGERATOR,02_A2,62.25,1.6,1200.000,19.279,774.194,0.000,1.000,0.000,0.000,General,43.476,1200.000
 ElectricEquipment Internal Gains Nominal, 03_A2 ELECTRIC EQUIPMENT 33,APARTMENTMIDRISE EQP_REFRIGERATOR,03_A2,62.25,1.6,1200.000,19.279,774.194,0.000,1.000,0.000,0.000,General,43.476,1200.000
 ElectricEquipment Internal Gains Nominal, 01_A2 ELECTRIC EQUIPMENT 34,APARTMENTMIDRISE EQP_APT_SCH,01_A2,62.25,1.6,350.000,5.623,225.806,0.200,0.730,0.000,7.000E-002,General,8.540,350.000
 ElectricEquipment Internal Gains Nominal, 02_A2 ELECTRIC EQUIPMENT 34,APARTMENTMIDRISE EQP_APT_SCH,02_A2,62.25,1.6,350.000,5.623,225.806,0.200,0.730,0.000,7.000E-002,General,8.540,350.000
 ElectricEquipment Internal Gains Nominal, 03_A2 ELECTRIC EQUIPMENT 34,APARTMENTMIDRISE EQP_APT_SCH,03_A2,62.25,1.6,350.000,5.623,225.806,0.200,0.730,0.000,7.000E-002,General,8.540,350.000
 ElectricEquipment Internal Gains Nominal, 01_B2 ELECTRIC EQUIPMENT 45,APARTMENTMIDRISE EQP_RANGE,01_B2,96.77,2.5,397.059,4.103,160.753,0.300,0.400,0.000,0.300,General,1.271,397.059
 ElectricEquipment Internal Gains Nominal, 02_B2 ELECTRIC EQUIPMENT 45,APARTMENTMIDRISE EQP_RANGE,02_B2,96.77,2.5,397.059,4.103,160.753,0.300,0.400,0.000,0.300,General,1.271,397.059
 ElectricEquipment Internal Gains Nominal, 03_B2 ELECTRIC EQUIPMENT 45,APARTMENTMIDRISE EQP_RANGE,03_B2,96.77,2.5,397.059,4.103,160.753,0.300,0.400,0.000,0.300,General,1.271,397.059
 ElectricEquipment Internal Gains Nominal, 01_B2 ELECTRIC EQUIPMENT 60,APARTMENTMIDRISE EQP_CLOTHESDRYER,01_B2,96.77,2.5,1699.556,17.562,688.079,5.000E-002,0.150,0.000,0.800,General,3.399,1699.556
 ElectricEquipment Internal Gains Nominal, 02_B2 ELECTRIC EQUIPMENT 60,APARTMENTMIDRISE EQP_CLOTHESDRYER,02_B2,96.77,2.5,1699.556,17.562,688.079,5.000E-002,0.150,0.000,0.800,General,3.399,1699.556
 ElectricEquipment Internal Gains Nominal, 03_B2 ELECTRIC EQUIPMENT 60,APARTMENTMIDRISE EQP_CLOTHESDRYER,03_B2,96.77,2.5,1699.556,17.562,688.079,5.000E-002,0.150,0.000,0.800,General,3.399,1699.556
 ElectricEquipment Internal Gains Nominal, 01_B2 ELECTRIC EQUIPMENT 61,APARTMENTMIDRISE EQP_CLOTHESWASHER,01_B2,96.77,2.5,350.000,3.617,141.700,0.000,0.800,0.000,0.200,General,1.225,350.000
 ElectricEquipment Internal Gains Nominal, 02_B2 ELECTRIC EQUIPMENT 61,APARTMENTMIDRISE EQP_CLOTHESWASHER,02_B2,96.77,2.5,350.000,3.617,141.700,0.000,0.800,0.000,0.200,General,1.225,350.000
 ElectricEquipment Internal Gains Nominal, 03_B2 ELECTRIC EQUIPMENT 61,APARTMENTMIDRISE EQP_CLOTHESWASHER,03_B2,96.77,2.5,350.000,3.617,141.700,0.000,0.800,0.000,0.200,General,1.225,350.000
 ElectricEquipment Internal Gains Nominal, 01_B2 ELECTRIC EQUIPMENT 63,APARTMENTMIDRISE EQP_DISHWASHER,01_B2,96.77,2.5,780.000,8.060,315.789,0.150,0.600,0.000,0.250,General,2.730,780.000
 ElectricEquipment Internal Gains Nominal, 02_B2 ELECTRIC EQUIPMENT 63,APARTMENTMIDRISE EQP_DISHWASHER,02_B2,96.77,2.5,780.000,8.060,315.789,0.150,0.600,0.000,0.250,General,2.730,780.000
 ElectricEquipment Internal Gains Nominal, 03_B2 ELECTRIC EQUIPMENT 63,APARTMENTMIDRISE EQP_DISHWASHER,03_B2,96.77,2.5,780.000,8.060,315.789,0.150,0.600,0.000,0.250,General,2.730,780.000
 ElectricEquipment Internal Gains Nominal, 01_B2 ELECTRIC EQUIPMENT 64,APARTMENTMIDRISE EQP_RANGE,01_B2,96.77,2.5,250.000,2.583,101.215,0.200,0.730,0.000,7.000E-002,General,0.800,250.000
 ElectricEquipment Internal Gains Nominal, 02_B2 ELECTRIC EQUIPMENT 64,APARTMENTMIDRISE EQP_RANGE,02_B2,96.77,2.5,250.000,2.583,101.215,0.200,0.730,0.000,7.000E-002,General,0.800,250.000
 ElectricEquipment Internal Gains Nominal, 03_B2 ELECTRIC EQUIPMENT 64,APARTMENTMIDRISE EQP_RANGE,03_B2,96.77,2.5,250.000,2.583,101.215,0.200,0.730,0.000,7.000E-002,General,0.800,250.000
 ElectricEquipment Internal Gains Nominal, 01_B2 ELECTRIC EQUIPMENT 65,APARTMENTMIDRISE EQP_RANGE,01_B2,96.77,2.5,220.588,2.279,89.307,0.300,0.400,0.000,0.300,General,0.706,220.588
 ElectricEquipment Internal Gains Nominal, 02_B2 ELECTRIC EQUIPMENT 65,APARTMENTMIDRISE EQP_RANGE,02_B2,96.77,2.5,220.588,2.279,89.307,0.300,0.400,0.000,0.300,General,0.706,220.588
 ElectricEquipment Internal Gains Nominal, 03_B2 ELECTRIC EQUIPMENT 65,APARTMENTMIDRISE EQP_RANGE,03_B2,96.77,2.5,220.588,2.279,89.307,0.300,0.400,0.000,0.300,General,0.706,220.588
 ElectricEquipment Internal Gains Nominal, 01_B2 ELECTRIC EQUIPMENT 66,APARTMENTMIDRISE EQP_RANGE,01_B2,96.77,2.5,176.471,1.824,71.446,0.300,0.400,0.000,0.300,General,0.565,176.471
 ElectricEquipment Internal Gains Nominal, 02_B2 ELECTRIC EQUIPMENT 66,APARTMENTMIDRISE EQP_RANGE,02_B2,96.77,2.5,176.471,1.824,71.446,0.300,0.400,0.000,0.300,General,0.565,176.471
 ElectricEquipment Internal Gains Nominal, 03_B2 ELECTRIC EQUIPMENT 66,APARTMENTMIDRISE EQP_RANGE,03_B2,96.77,2.5,176.471,1.824,71.446,0.300,0.400,0.000,0.300,General,0.565,176.471
 ElectricEquipment Internal Gains Nominal, 01_B2 ELECTRIC EQUIPMENT 67,APARTMENTMIDRISE EQP_REFRIGERATOR,01_B2,96.77,2.5,1200.000,12.400,485.830,0.000,1.000,0.000,0.000,General,43.476,1200.000
 ElectricEquipment Internal Gains Nominal, 02_B2 ELECTRIC EQUIPMENT 67,APARTMENTMIDRISE EQP_REFRIGERATOR,02_B2,96.77,2.5,1200.000,12.400,485.830,0.000,1.000,0.000,0.000,General,43.476,1200.000
 ElectricEquipment Internal Gains Nominal, 03_B2 ELECTRIC EQUIPMENT 67,APARTMENTMIDRISE EQP_REFRIGERATOR,03_B2,96.77,2.5,1200.000,12.400,485.830,0.000,1.000,0.000,0.000,General,43.476,1200.000
 ElectricEquipment Internal Gains Nominal, 01_B2 ELECTRIC EQUIPMENT 68,APARTMENTMIDRISE EQP_APT_SCH,01_B2,96.77,2.5,350.000,3.617,141.700,0.200,0.730,0.000,7.000E-002,General,8.540,350.000
 ElectricEquipment Internal Gains Nominal, 02_B2 ELECTRIC EQUIPMENT 68,APARTMENTMIDRISE EQP_APT_SCH,02_B2,96.77,2.5,350.000,3.617,141.700,0.200,0.730,0.000,7.000E-002,General,8.540,350.000
 ElectricEquipment Internal Gains Nominal, 03_B2 ELECTRIC EQUIPMENT 68,APARTMENTMIDRISE EQP_APT_SCH,03_B2,96.77,2.5,350.000,3.617,141.700,0.200,0.730,0.000,7.000E-002,General,8.540,350.000
 ElectricEquipment Internal Gains Nominal, 01_C1 ELECTRIC EQUIPMENT 1,APARTMENTMIDRISE EQP_CLOTHESDRYER,01_C1,113.62,3.4,1699.556,14.958,501.344,5.000E-002,0.150,0.000,0.800,General,3.399,1699.556
 ElectricEquipment Internal Gains Nominal, 02_C1 ELECTRIC EQUIPMENT 1,APARTMENTMIDRISE EQP_CLOTHESDRYER,02_C1,113.62,3.4,1699.556,14.958,501.344,5.000E-002,0.150,0.000,0.800,General,3.399,1699.556
 ElectricEquipment Internal Gains Nominal, 03_C1 ELECTRIC EQUIPMENT 1,APARTMENTMIDRISE EQP_CLOTHESDRYER,03_C1,113.62,3.4,1699.556,14.958,501.344,5.000E-002,0.150,0.000,0.800,General,3.399,1699.556
 ElectricEquipment Internal Gains Nominal, 01_C1 ELECTRIC EQUIPMENT 10,APARTMENTMIDRISE EQP_RANGE,01_C1,113.62,3.4,397.059,3.495,117.126,0.300,0.400,0.000,0.300,General,1.271,397.059
 ElectricEquipment Internal Gains Nominal, 02_C1 ELECTRIC EQUIPMENT 10,APARTMENTMIDRISE EQP_RANGE,02_C1,113.62,3.4,397.059,3.495,117.126,0.300,0.400,0.000,0.300,General,1.271,397.059
 ElectricEquipment Internal Gains Nominal, 03_C1 ELECTRIC EQUIPMENT 10,APARTMENTMIDRISE EQP_RANGE,03_C1,113.62,3.4,397.059,3.495,117.126,0.300,0.400,0.000,0.300,General,1.271,397.059
 ElectricEquipment Internal Gains Nominal, 01_C1 ELECTRIC EQUIPMENT 2,APARTMENTMIDRISE EQP_CLOTHESWASHER,01_C1,113.62,3.4,350.000,3.080,103.245,0.000,0.800,0.000,0.200,General,1.225,350.000
 ElectricEquipment Internal Gains Nominal, 02_C1 ELECTRIC EQUIPMENT 2,APARTMENTMIDRISE EQP_CLOTHESWASHER,02_C1,113.62,3.4,350.000,3.080,103.245,0.000,0.800,0.000,0.200,General,1.225,350.000
 ElectricEquipment Internal Gains Nominal, 03_C1 ELECTRIC EQUIPMENT 2,APARTMENTMIDRISE EQP_CLOTHESWASHER,03_C1,113.62,3.4,350.000,3.080,103.245,0.000,0.800,0.000,0.200,General,1.225,350.000
 ElectricEquipment Internal Gains Nominal, 01_C1 ELECTRIC EQUIPMENT 4,APARTMENTMIDRISE EQP_DISHWASHER,01_C1,113.62,3.4,780.000,6.865,230.088,0.150,0.600,0.000,0.250,General,2.730,780.000
 ElectricEquipment Internal Gains Nominal, 02_C1 ELECTRIC EQUIPMENT 4,APARTMENTMIDRISE EQP_DISHWASHER,02_C1,113.62,3.4,780.000,6.865,230.088,0.150,0.600,0.000,0.250,General,2.730,780.000
 ElectricEquipment Internal Gains Nominal, 03_C1 ELECTRIC EQUIPMENT 4,APARTMENTMIDRISE EQP_DISHWASHER,03_C1,113.62,3.4,780.000,6.865,230.088,0.150,0.600,0.000,0.250,General,2.730,780.000
 ElectricEquipment Internal Gains Nominal, 01_C1 ELECTRIC EQUIPMENT 5,APARTMENTMIDRISE EQP_RANGE,01_C1,113.62,3.4,220.588,1.941,65.070,0.300,0.400,0.000,0.300,General,0.706,220.588
 ElectricEquipment Internal Gains Nominal, 02_C1 ELECTRIC EQUIPMENT 5,APARTMENTMIDRISE EQP_RANGE,02_C1,113.62,3.4,220.588,1.941,65.070,0.300,0.400,0.000,0.300,General,0.706,220.588
 ElectricEquipment Internal Gains Nominal, 03_C1 ELECTRIC EQUIPMENT 5,APARTMENTMIDRISE EQP_RANGE,03_C1,113.62,3.4,220.588,1.941,65.070,0.300,0.400,0.000,0.300,General,0.706,220.588
 ElectricEquipment Internal Gains Nominal, 01_C1 ELECTRIC EQUIPMENT 53,APARTMENTMIDRISE EQP_RANGE,01_C1,113.62,3.4,220.588,1.941,65.070,0.300,0.400,0.000,0.300,General,0.706,220.588
 ElectricEquipment Internal Gains Nominal, 02_C1 ELECTRIC EQUIPMENT 53,APARTMENTMIDRISE EQP_RANGE,02_C1,113.62,3.4,220.588,1.941,65.070,0.300,0.400,0.000,0.300,General,0.706,220.588
 ElectricEquipment Internal Gains Nominal, 03_C1 ELECTRIC EQUIPMENT 53,APARTMENTMIDRISE EQP_RANGE,03_C1,113.62,3.4,220.588,1.941,65.070,0.300,0.400,0.000,0.300,General,0.706,220.588
 ElectricEquipment Internal Gains Nominal, 01_C1 ELECTRIC EQUIPMENT 6,APARTMENTMIDRISE EQP_RANGE,01_C1,113.62,3.4,250.000,2.200,73.746,0.200,0.730,0.000,7.000E-002,General,0.800,250.000
 ElectricEquipment Internal Gains Nominal, 02_C1 ELECTRIC EQUIPMENT 6,APARTMENTMIDRISE EQP_RANGE,02_C1,113.62,3.4,250.000,2.200,73.746,0.200,0.730,0.000,7.000E-002,General,0.800,250.000
 ElectricEquipment Internal Gains Nominal, 03_C1 ELECTRIC EQUIPMENT 6,APARTMENTMIDRISE EQP_RANGE,03_C1,113.62,3.4,250.000,2.200,73.746,0.200,0.730,0.000,7.000E-002,General,0.800,250.000
 ElectricEquipment Internal Gains Nominal, 01_C1 ELECTRIC EQUIPMENT 7,APARTMENTMIDRISE EQP_RANGE,01_C1,113.62,3.4,176.471,1.553,52.056,0.300,0.400,0.000,0.300,General,0.565,176.471
 ElectricEquipment Internal Gains Nominal, 02_C1 ELECTRIC EQUIPMENT 7,APARTMENTMIDRISE EQP_RANGE,02_C1,113.62,3.4,176.471,1.553,52.056,0.300,0.400,0.000,0.300,General,0.565,176.471
 ElectricEquipment Internal Gains Nominal, 03_C1 ELECTRIC EQUIPMENT 7,APARTMENTMIDRISE EQP_RANGE,03_C1,113.62,3.4,176.471,1.553,52.056,0.300,0.400,0.000,0.300,General,0.565,176.471
 ElectricEquipment Internal Gains Nominal, 01_C1 ELECTRIC EQUIPMENT 8,APARTMENTMIDRISE EQP_REFRIGERATOR,01_C1,113.62,3.4,1200.000,10.561,353.982,0.000,1.000,0.000,0.000,General,43.476,1200.000
 ElectricEquipment Internal Gains Nominal, 02_C1 ELECTRIC EQUIPMENT 8,APARTMENTMIDRISE EQP_REFRIGERATOR,02_C1,113.62,3.4,1200.000,10.561,353.982,0.000,1.000,0.000,0.000,General,43.476,1200.000
 ElectricEquipment Internal Gains Nominal, 03_C1 ELECTRIC EQUIPMENT 8,APARTMENTMIDRISE EQP_REFRIGERATOR,03_C1,113.62,3.4,1200.000,10.561,353.982,0.000,1.000,0.000,0.000,General,43.476,1200.000
 ElectricEquipment Internal Gains Nominal, 01_C1 ELECTRIC EQUIPMENT 9,APARTMENTMIDRISE EQP_APT_SCH,01_C1,113.62,3.4,350.000,3.080,103.245,0.200,0.730,0.000,7.000E-002,General,8.540,350.000
 ElectricEquipment Internal Gains Nominal, 02_C1 ELECTRIC EQUIPMENT 9,APARTMENTMIDRISE EQP_APT_SCH,02_C1,113.62,3.4,350.000,3.080,103.245,0.200,0.730,0.000,7.000E-002,General,8.540,350.000
 ElectricEquipment Internal Gains Nominal, 03_C1 ELECTRIC EQUIPMENT 9,APARTMENTMIDRISE EQP_APT_SCH,03_C1,113.62,3.4,350.000,3.080,103.245,0.200,0.730,0.000,7.000E-002,General,8.540,350.000
! <Shadowing/Sun Position Calculations Annual Simulations>, Calculation Method, Value {days}, Allowable Number Figures in Shadow Overlap {}, Polygon Clipping Algorithm, Sky Diffuse Modeling Algorithm, External Shading Calculation Method, Output External Shading Calculation Results, Disable Self-Shading Within Shading Zone Groups, Disable Self-Shading From Shading Zone Groups to Other Zones
Shadowing/Sun Position Calculations Annual Simulations,AverageOverDaysInFrequency,20,15000,SutherlandHodgman,SimpleSkyDiffuseModeling,InternalCalculation,No,No,No
! <RoomAir Model>, Zone Name, Mixing/Mundt/UCSDDV/UCSDCV/UCSDUFI/UCSDUFE/User Defined
RoomAir Model,01_A1,Mixing/Well-Stirred
RoomAir Model,01_A2,Mixing/Well-Stirred
RoomAir Model,01_B2,Mixing/Well-Stirred
RoomAir Model,01_C1,Mixing/Well-Stirred
RoomAir Model,02_A1,Mixing/Well-Stirred
RoomAir Model,02_A2,Mixing/Well-Stirred
RoomAir Model,02_B2,Mixing/Well-Stirred
RoomAir Model,02_C1,Mixing/Well-Stirred
RoomAir Model,03_A1,Mixing/Well-Stirred
RoomAir Model,03_A2,Mixing/Well-Stirred
RoomAir Model,03_B2,Mixing/Well-Stirred
RoomAir Model,03_C1,Mixing/Well-Stirred
! <AirflowNetwork Model:Control>, No Multizone or Distribution/Multizone with Distribution/Multizone without Distribution/Multizone with Distribution only during Fan Operation
AirflowNetwork Model:Control,NoMultizoneOrDistribution
! <Zone Volume Capacitance Multiplier>, Sensible Heat Capacity Multiplier, Moisture Capacity Multiplier, Carbon Dioxide Capacity Multiplier, Generic Contaminant Capacity Multiplier
Zone Volume Capacitance Multiplier,   1.000 ,   1.000,   1.000,   1.000
! <Zone Sizing DOAS Inputs>, Zone Name, DOAS Design Control Strategy, DOAS Design Low Setpoint Temperature {C}, DOAS Design High Setpoint Temperature {C} 
 Zone Sizing DOAS Inputs, 01_A1, NeutralSupplyAir, 21.100, 23.900
! <Load Timesteps in Zone Design Calculation Averaging Window>, Value
 Load Timesteps in Zone Design Calculation Averaging Window,    6
! <Heating Sizing Factor Information>, Sizing Factor ID, Value
 Heating Sizing Factor Information, Global,   1.2500    
 Heating Sizing Factor Information, Zone 01_A1,   1.2500    
 Heating Sizing Factor Information, Zone 01_A2,   1.2500    
 Heating Sizing Factor Information, Zone 01_B2,   1.2500    
 Heating Sizing Factor Information, Zone 01_C1,   1.2500    
 Heating Sizing Factor Information, Zone 02_A1,   1.2500    
 Heating Sizing Factor Information, Zone 02_A2,   1.2500    
 Heating Sizing Factor Information, Zone 02_B2,   1.2500    
 Heating Sizing Factor Information, Zone 02_C1,   1.2500    
 Heating Sizing Factor Information, Zone 03_A1,   1.2500    
 Heating Sizing Factor Information, Zone 03_A2,   1.2500    
 Heating Sizing Factor Information, Zone 03_B2,   1.2500    
 Heating Sizing Factor Information, Zone 03_C1,   1.2500    
! <Cooling Sizing Factor Information>, Sizing Factor ID, Value
 Cooling Sizing Factor Information, Global,   1.1500    
 Cooling Sizing Factor Information, Zone 01_A1,   1.1500    
 Cooling Sizing Factor Information, Zone 01_A2,   1.1500    
 Cooling Sizing Factor Information, Zone 01_B2,   1.1500    
 Cooling Sizing Factor Information, Zone 01_C1,   1.1500    
 Cooling Sizing Factor Information, Zone 02_A1,   1.1500    
 Cooling Sizing Factor Information, Zone 02_A2,   1.1500    
 Cooling Sizing Factor Information, Zone 02_B2,   1.1500    
 Cooling Sizing Factor Information, Zone 02_C1,   1.1500    
 Cooling Sizing Factor Information, Zone 03_A1,   1.1500    
 Cooling Sizing Factor Information, Zone 03_A2,   1.1500    
 Cooling Sizing Factor Information, Zone 03_B2,   1.1500    
 Cooling Sizing Factor Information, Zone 03_C1,   1.1500    
! <Zone Sizing Information>, Zone Name, Load Type, Calc Des Load {W}, User Des Load {W}, Calc Des Air Flow Rate {m3/s}, User Des Air Flow Rate {m3/s}, Design Day Name, Date/Time of Peak, Temperature at Peak {C}, Humidity Ratio at Peak {kgWater/kgDryAir}, Floor Area {m2}, # Occupants, Calc Outdoor Air Flow Rate {m3/s}, Calc DOAS Heat Addition Rate {W}
 Zone Sizing Information, 01_A1, Cooling, 3403.87698, 3914.45853, 0.20023, 0.23027, ANCHORAGEMERRILLFIELDANNCLG.4CONDNSDBMWB, 7/21 19:20:00, 19.79867, 7.75780E-003, 57.59988, 1.55000, 2.35974E-002, -67.32850
 Zone Sizing Information, 01_A1, Heating, 33.39809, 41.74762, 2.46220E-003, 2.35974E-002, ANCHORAGEMERRILLFIELDANNHTG99.6CONDNSDB, 1/21 01:50:00, -23.90000, 4.35879E-004, 57.59988, 1.55000, 2.35974E-002, -66.43111
 Zone Sizing Information, 01_A2, Cooling, 2964.64357, 3409.34010, 0.17444, 0.20061, ANCHORAGEMERRILLFIELDANNCLG.4CONDNSDBMWB, 7/21 19:00:00, 20.04800, 7.75780E-003, 62.24504, 1.55000, 2.35974E-002, 0.00000
 Zone Sizing Information, 01_A2, Heating, 0.00000, 0.00000, 0.00000, 0.32470, ANCHORAGEMERRILLFIELDANNHTG99.6CONDNSDB, , -23.90000, 4.35879E-004, 62.24504, 1.55000, 2.35974E-002, 0.00000
 Zone Sizing Information, 01_B2, Cooling, 3582.42119, 4119.78437, 0.21077, 0.24239, ANCHORAGEMERRILLFIELDANNCLG.4CONDNSDBMWB, 7/21 18:10:00, 20.89800, 7.75780E-003, 96.77400, 2.47000, 2.35974E-002, 0.00000
 Zone Sizing Information, 01_B2, Heating, 63.63196, 79.53995, 3.74648E-003, 2.35974E-002, ANCHORAGEMERRILLFIELDANNHTG99.6CONDNSDB, 1/21 05:00:00, -23.90000, 4.35879E-004, 96.77400, 2.47000, 2.35974E-002, 0.00000
 Zone Sizing Information, 01_C1, Cooling, 4206.99192, 4838.04071, 0.24753, 0.28465, ANCHORAGEMERRILLFIELDANNCLG.4CONDNSDBMWB, 7/21 19:00:00, 20.04800, 7.75780E-003, 113.62042, 3.39000, 2.35974E-002, 0.00000
 Zone Sizing Information, 01_C1, Heating, 17.78332, 22.22916, 1.04703E-003, 2.35974E-002, ANCHORAGEMERRILLFIELDANNHTG99.6CONDNSDB, 1/21 05:00:00, -23.90000, 4.35879E-004, 113.62042, 3.39000, 2.35974E-002, 0.00000
 Zone Sizing Information, 02_A1, Cooling, 4913.65956, 5650.70850, 0.28912, 0.33249, ANCHORAGEMERRILLFIELDANNCLG.4CONDNSDBMWB, 7/21 19:40:00, 19.54933, 7.75780E-003, 57.59988, 1.55000, 2.35974E-002, 0.00000
 Zone Sizing Information, 02_A1, Heating, 0.00000, 0.00000, 0.00000, 0.32470, ANCHORAGEMERRILLFIELDANNHTG99.6CONDNSDB, , -23.90000, 4.35879E-004, 57.59988, 1.55000, 2.35974E-002, 0.00000
 Zone Sizing Information, 02_A2, Cooling, 4522.72238, 5201.13073, 0.26611, 0.30603, ANCHORAGEMERRILLFIELDANNCLG.4CONDNSDBMWB, 7/21 19:00:00, 20.04800, 7.75780E-003, 62.24504, 1.55000, 2.35974E-002, 0.00000
 Zone Sizing Information, 02_A2, Heating, 0.00000, 0.00000, 0.00000, 0.32470, ANCHORAGEMERRILLFIELDANNHTG99.6CONDNSDB, , -23.90000, 4.35879E-004, 62.24504, 1.55000, 2.35974E-002, 0.00000
 Zone Sizing Information, 02_B2, Cooling, 6158.06666, 7081.77666, 0.36231, 0.41666, ANCHORAGEMERRILLFIELDANNCLG.4CONDNSDBMWB, 7/21 18:20:00, 20.72800, 7.75780E-003, 96.77400, 2.47000, 2.35974E-002, 0.00000
 Zone Sizing Information, 02_B2, Heating, 0.00000, 0.00000, 0.00000, 0.32470, ANCHORAGEMERRILLFIELDANNHTG99.6CONDNSDB, , -23.90000, 4.35879E-004, 96.77400, 2.47000, 2.35974E-002, 0.00000
 Zone Sizing Information, 02_C1, Cooling, 7006.84009, 8057.86611, 0.41226, 0.47410, ANCHORAGEMERRILLFIELDANNCLG.4CONDNSDBMWB, 7/21 19:20:00, 19.79867, 7.75780E-003, 113.62042, 3.39000, 2.35974E-002, 0.00000
 Zone Sizing Information, 02_C1, Heating, 0.00000, 0.00000, 0.00000, 0.32470, ANCHORAGEMERRILLFIELDANNHTG99.6CONDNSDB, , -23.90000, 4.35879E-004, 113.62042, 3.39000, 2.35974E-002, 0.00000
 Zone Sizing Information, 03_A1, Cooling, 5211.30093, 5992.99607, 0.30663, 0.35263, ANCHORAGEMERRILLFIELDANNCLG.4CONDNSDBMWB, 7/21 19:30:00, 19.67400, 7.75780E-003, 57.59988, 1.55000, 2.35974E-002, 0.00000
 Zone Sizing Information, 03_A1, Heating, 0.00000, 0.00000, 0.00000, 0.32470, ANCHORAGEMERRILLFIELDANNHTG99.6CONDNSDB, , -23.90000, 4.35879E-004, 57.59988, 1.55000, 2.35974E-002, 0.00000
 Zone Sizing Information, 03_A2, Cooling, 4795.35764, 5514.66129, 0.28215, 0.32447, ANCHORAGEMERRILLFIELDANNCLG.4CONDNSDBMWB, 7/21 19:00:00, 20.04800, 7.75780E-003, 62.24504, 1.55000, 2.35974E-002, 0.00000
 Zone Sizing Information, 03_A2, Heating, 0.00000, 0.00000, 0.00000, 0.32470, ANCHORAGEMERRILLFIELDANNHTG99.6CONDNSDB, , -23.90000, 4.35879E-004, 62.24504, 1.55000, 2.35974E-002, 0.00000
 Zone Sizing Information, 03_B2, Cooling, 6649.81296, 7647.28491, 0.39124, 0.44992, ANCHORAGEMERRILLFIELDANNCLG.4CONDNSDBMWB, 7/21 18:00:00, 21.06800, 7.75780E-003, 96.77400, 2.47000, 2.35974E-002, 0.00000
 Zone Sizing Information, 03_B2, Heating, 0.00000, 0.00000, 0.00000, 0.32470, ANCHORAGEMERRILLFIELDANNHTG99.6CONDNSDB, , -23.90000, 4.35879E-004, 96.77400, 2.47000, 2.35974E-002, 0.00000
 Zone Sizing Information, 03_C1, Cooling, 7589.81273, 8728.28464, 0.44656, 0.51354, ANCHORAGEMERRILLFIELDANNCLG.4CONDNSDBMWB, 7/21 19:10:00, 19.92333, 7.75780E-003, 113.62042, 3.39000, 2.35974E-002, 0.00000
 Zone Sizing Information, 03_C1, Heating, 0.00000, 0.00000, 0.00000, 0.32470, ANCHORAGEMERRILLFIELDANNHTG99.6CONDNSDB, , -23.90000, 4.35879E-004, 113.62042, 3.39000, 2.35974E-002, 0.00000
! <System Sizing Information>, System Name, Load Type, Peak Load Kind, User Design Capacity, Calc Des Air Flow Rate [m3/s], User Des Air Flow Rate [m3/s], Design Day Name, Date/Time of Peak
 System Sizing Information, AIR LOOP HVAC 1, Cooling, Sensible, 1940.55, 0.23027, 0.23027, ANCHORAGEMERRILLFIELDANNCLG.4CONDNSDBMWB, 7/21 05:00:00
 System Sizing Information, AIR LOOP HVAC 1, Heating, Sensible, 1153.64, 2.35974E-002, 2.35974E-002, ANCHORAGEMERRILLFIELDANNHTG99.6CONDNSDB, 1/21 00:10:00
 System Sizing Information, AIR LOOP HVAC 10, Cooling, Sensible, 2831.90, 0.32447, 0.32447, ANCHORAGEMERRILLFIELDANNCLG.4CONDNSDBMWB, 7/21 05:00:00
 System Sizing Information, AIR LOOP HVAC 10, Heating, Sensible, 15874.03, 0.32470, 0.32470, ANCHORAGEMERRILLFIELDANNHTG99.6CONDNSDB, 1/21 00:10:00
 System Sizing Information, AIR LOOP HVAC 11, Cooling, Sensible, 4479.37, 0.44992, 0.44992, ANCHORAGEMERRILLFIELDANNCLG.4CONDNSDBMWB, 7/21 05:00:00
 System Sizing Information, AIR LOOP HVAC 11, Heating, Sensible, 15874.03, 0.32470, 0.32470, ANCHORAGEMERRILLFIELDANNHTG99.6CONDNSDB, 1/21 00:10:00
 System Sizing Information, AIR LOOP HVAC 12, Cooling, Sensible, 4404.90, 0.51354, 0.51354, ANCHORAGEMERRILLFIELDANNCLG.4CONDNSDBMWB, 7/21 05:00:00
 System Sizing Information, AIR LOOP HVAC 12, Heating, Sensible, 15874.03, 0.32470, 0.32470, ANCHORAGEMERRILLFIELDANNHTG99.6CONDNSDB, 1/21 00:10:00
 System Sizing Information, AIR LOOP HVAC 2, Cooling, Sensible, 1750.87, 0.20061, 0.20061, ANCHORAGEMERRILLFIELDANNCLG.4CONDNSDBMWB, 7/21 05:00:00
 System Sizing Information, AIR LOOP HVAC 2, Heating, Sensible, 15874.03, 0.32470, 0.32470, ANCHORAGEMERRILLFIELDANNHTG99.6CONDNSDB, 1/21 00:10:00
 System Sizing Information, AIR LOOP HVAC 3, Cooling, Sensible, 2363.57, 0.24239, 0.24239, ANCHORAGEMERRILLFIELDANNCLG.4CONDNSDBMWB, 7/21 05:00:00
 System Sizing Information, AIR LOOP HVAC 3, Heating, Sensible, 1153.64, 2.35974E-002, 2.35974E-002, ANCHORAGEMERRILLFIELDANNHTG99.6CONDNSDB, 1/21 00:10:00
 System Sizing Information, AIR LOOP HVAC 4, Cooling, Sensible, 2484.36, 0.28465, 0.28465, ANCHORAGEMERRILLFIELDANNCLG.4CONDNSDBMWB, 7/21 05:00:00
 System Sizing Information, AIR LOOP HVAC 4, Heating, Sensible, 1153.64, 2.35974E-002, 2.35974E-002, ANCHORAGEMERRILLFIELDANNHTG99.6CONDNSDB, 1/21 00:10:00
 System Sizing Information, AIR LOOP HVAC 5, Cooling, Sensible, 2702.20, 0.33249, 0.33249, ANCHORAGEMERRILLFIELDANNCLG.4CONDNSDBMWB, 7/21 05:00:00
 System Sizing Information, AIR LOOP HVAC 5, Heating, Sensible, 15874.03, 0.32470, 0.32470, ANCHORAGEMERRILLFIELDANNHTG99.6CONDNSDB, 1/21 00:10:00
 System Sizing Information, AIR LOOP HVAC 6, Cooling, Sensible, 2670.91, 0.30603, 0.30603, ANCHORAGEMERRILLFIELDANNCLG.4CONDNSDBMWB, 7/21 05:00:00
 System Sizing Information, AIR LOOP HVAC 6, Heating, Sensible, 15874.03, 0.32470, 0.32470, ANCHORAGEMERRILLFIELDANNHTG99.6CONDNSDB, 1/21 00:10:00
 System Sizing Information, AIR LOOP HVAC 7, Cooling, Sensible, 3977.61, 0.41666, 0.41666, ANCHORAGEMERRILLFIELDANNCLG.4CONDNSDBMWB, 7/21 05:00:00
 System Sizing Information, AIR LOOP HVAC 7, Heating, Sensible, 15874.03, 0.32470, 0.32470, ANCHORAGEMERRILLFIELDANNHTG99.6CONDNSDB, 1/21 00:10:00
 System Sizing Information, AIR LOOP HVAC 8, Cooling, Sensible, 3995.41, 0.47410, 0.47410, ANCHORAGEMERRILLFIELDANNCLG.4CONDNSDBMWB, 7/21 05:00:00
 System Sizing Information, AIR LOOP HVAC 8, Heating, Sensible, 15874.03, 0.32470, 0.32470, ANCHORAGEMERRILLFIELDANNHTG99.6CONDNSDB, 1/21 00:10:00
 System Sizing Information, AIR LOOP HVAC 9, Cooling, Sensible, 2918.83, 0.35263, 0.35263, ANCHORAGEMERRILLFIELDANNCLG.4CONDNSDBMWB, 7/21 05:00:00
 System Sizing Information, AIR LOOP HVAC 9, Heating, Sensible, 15874.03, 0.32470, 0.32470, ANCHORAGEMERRILLFIELDANNHTG99.6CONDNSDB, 1/21 00:10:00
! <Component Sizing Information>, Component Type, Component Name, Input Field Description, Value
 Component Sizing Information, AirTerminal:SingleDuct:Uncontrolled, DIFFUSER, Design Size Maximum Air Flow Rate [m3/s], 0.23027
 Component Sizing Information, AirTerminal:SingleDuct:Uncontrolled, DIFFUSER 1, Design Size Maximum Air Flow Rate [m3/s], 0.32470
 Component Sizing Information, AirTerminal:SingleDuct:Uncontrolled, DIFFUSER 2, Design Size Maximum Air Flow Rate [m3/s], 0.24239
 Component Sizing Information, AirTerminal:SingleDuct:Uncontrolled, DIFFUSER 3, Design Size Maximum Air Flow Rate [m3/s], 0.28465
 Component Sizing Information, AirTerminal:SingleDuct:Uncontrolled, DIFFUSER 4, Design Size Maximum Air Flow Rate [m3/s], 0.33249
 Component Sizing Information, AirTerminal:SingleDuct:Uncontrolled, DIFFUSER 5, Design Size Maximum Air Flow Rate [m3/s], 0.32470
 Component Sizing Information, AirTerminal:SingleDuct:Uncontrolled, DIFFUSER 11, Design Size Maximum Air Flow Rate [m3/s], 0.41666
 Component Sizing Information, AirTerminal:SingleDuct:Uncontrolled, DIFFUSER 6, Design Size Maximum Air Flow Rate [m3/s], 0.47410
 Component Sizing Information, AirTerminal:SingleDuct:Uncontrolled, DIFFUSER 7, Design Size Maximum Air Flow Rate [m3/s], 0.35263
 Component Sizing Information, AirTerminal:SingleDuct:Uncontrolled, DIFFUSER 8, Design Size Maximum Air Flow Rate [m3/s], 0.32470
 Component Sizing Information, AirTerminal:SingleDuct:Uncontrolled, DIFFUSER 9, Design Size Maximum Air Flow Rate [m3/s], 0.44992
 Component Sizing Information, AirTerminal:SingleDuct:Uncontrolled, DIFFUSER 10, Design Size Maximum Air Flow Rate [m3/s], 0.51354
 Component Sizing Information, AirLoopHVAC, AIR LOOP HVAC 1, Sum of Air Terminal Maximum Heating Flow Rates [m3/s], 0.23027
 Component Sizing Information, AirLoopHVAC, AIR LOOP HVAC 1, Sum of Air Terminal Minimum Heating Flow Rates [m3/s], 0.23027
 Component Sizing Information, AirLoopHVAC, AIR LOOP HVAC 1, Sum of Air Terminal Maximum Flow Rates [m3/s], 0.23027
 Component Sizing Information, AirLoopHVAC, AIR LOOP HVAC 1, Adjusted Heating Design Air Flow Rate [m3/s], 0.23027
 Component Sizing Information, AirLoopHVAC, AIR LOOP HVAC 1, Adjusted Cooling Design Air Flow Rate [m3/s], 0.23027
 Component Sizing Information, AirLoopHVAC, AIR LOOP HVAC 1, Adjusted Main Design Air Flow Rate [m3/s], 0.23027
 Component Sizing Information, AirLoopHVAC, AIR LOOP HVAC 1, User Heating Air Flow Ratio [], 0.30000
 Component Sizing Information, AirLoopHVAC, AIR LOOP HVAC 1, Calculated Heating Air Flow Ratio [], 1.00000
 Component Sizing Information, AirLoopHVAC, AIR LOOP HVAC 10, Sum of Air Terminal Maximum Heating Flow Rates [m3/s], 0.32470
 Component Sizing Information, AirLoopHVAC, AIR LOOP HVAC 10, Sum of Air Terminal Minimum Heating Flow Rates [m3/s], 0.32470
 Component Sizing Information, AirLoopHVAC, AIR LOOP HVAC 10, Sum of Air Terminal Maximum Flow Rates [m3/s], 0.32470
 Component Sizing Information, AirLoopHVAC, AIR LOOP HVAC 10, Adjusted Heating Design Air Flow Rate [m3/s], 0.32470
 Component Sizing Information, AirLoopHVAC, AIR LOOP HVAC 10, Adjusted Cooling Design Air Flow Rate [m3/s], 0.32470
 Component Sizing Information, AirLoopHVAC, AIR LOOP HVAC 10, Adjusted Main Design Air Flow Rate [m3/s], 0.32470
 Component Sizing Information, AirLoopHVAC, AIR LOOP HVAC 10, User Heating Air Flow Ratio [], 0.30000
 Component Sizing Information, AirLoopHVAC, AIR LOOP HVAC 10, Calculated Heating Air Flow Ratio [], 1.00000
 Component Sizing Information, AirLoopHVAC, AIR LOOP HVAC 11, Sum of Air Terminal Maximum Heating Flow Rates [m3/s], 0.44992
 Component Sizing Information, AirLoopHVAC, AIR LOOP HVAC 11, Sum of Air Terminal Minimum Heating Flow Rates [m3/s], 0.44992
 Component Sizing Information, AirLoopHVAC, AIR LOOP HVAC 11, Sum of Air Terminal Maximum Flow Rates [m3/s], 0.44992
 Component Sizing Information, AirLoopHVAC, AIR LOOP HVAC 11, Adjusted Heating Design Air Flow Rate [m3/s], 0.44992
 Component Sizing Information, AirLoopHVAC, AIR LOOP HVAC 11, Adjusted Cooling Design Air Flow Rate [m3/s], 0.44992
 Component Sizing Information, AirLoopHVAC, AIR LOOP HVAC 11, Adjusted Main Design Air Flow Rate [m3/s], 0.44992
 Component Sizing Information, AirLoopHVAC, AIR LOOP HVAC 11, User Heating Air Flow Ratio [], 0.30000
 Component Sizing Information, AirLoopHVAC, AIR LOOP HVAC 11, Calculated Heating Air Flow Ratio [], 1.00000
 Component Sizing Information, AirLoopHVAC, AIR LOOP HVAC 12, Sum of Air Terminal Maximum Heating Flow Rates [m3/s], 0.51354
 Component Sizing Information, AirLoopHVAC, AIR LOOP HVAC 12, Sum of Air Terminal Minimum Heating Flow Rates [m3/s], 0.51354
 Component Sizing Information, AirLoopHVAC, AIR LOOP HVAC 12, Sum of Air Terminal Maximum Flow Rates [m3/s], 0.51354
 Component Sizing Information, AirLoopHVAC, AIR LOOP HVAC 12, Adjusted Heating Design Air Flow Rate [m3/s], 0.51354
 Component Sizing Information, AirLoopHVAC, AIR LOOP HVAC 12, Adjusted Cooling Design Air Flow Rate [m3/s], 0.51354
 Component Sizing Information, AirLoopHVAC, AIR LOOP HVAC 12, Adjusted Main Design Air Flow Rate [m3/s], 0.51354
 Component Sizing Information, AirLoopHVAC, AIR LOOP HVAC 12, User Heating Air Flow Ratio [], 0.30000
 Component Sizing Information, AirLoopHVAC, AIR LOOP HVAC 12, Calculated Heating Air Flow Ratio [], 1.00000
 Component Sizing Information, AirLoopHVAC, AIR LOOP HVAC 2, Sum of Air Terminal Maximum Heating Flow Rates [m3/s], 0.32470
 Component Sizing Information, AirLoopHVAC, AIR LOOP HVAC 2, Sum of Air Terminal Minimum Heating Flow Rates [m3/s], 0.32470
 Component Sizing Information, AirLoopHVAC, AIR LOOP HVAC 2, Sum of Air Terminal Maximum Flow Rates [m3/s], 0.32470
 Component Sizing Information, AirLoopHVAC, AIR LOOP HVAC 2, Adjusted Heating Design Air Flow Rate [m3/s], 0.32470
 Component Sizing Information, AirLoopHVAC, AIR LOOP HVAC 2, Adjusted Cooling Design Air Flow Rate [m3/s], 0.32470
 Component Sizing Information, AirLoopHVAC, AIR LOOP HVAC 2, Adjusted Main Design Air Flow Rate [m3/s], 0.32470
 Component Sizing Information, AirLoopHVAC, AIR LOOP HVAC 2, User Heating Air Flow Ratio [], 0.30000
 Component Sizing Information, AirLoopHVAC, AIR LOOP HVAC 2, Calculated Heating Air Flow Ratio [], 1.00000
 Component Sizing Information, AirLoopHVAC, AIR LOOP HVAC 3, Sum of Air Terminal Maximum Heating Flow Rates [m3/s], 0.24239
 Component Sizing Information, AirLoopHVAC, AIR LOOP HVAC 3, Sum of Air Terminal Minimum Heating Flow Rates [m3/s], 0.24239
 Component Sizing Information, AirLoopHVAC, AIR LOOP HVAC 3, Sum of Air Terminal Maximum Flow Rates [m3/s], 0.24239
 Component Sizing Information, AirLoopHVAC, AIR LOOP HVAC 3, Adjusted Heating Design Air Flow Rate [m3/s], 0.24239
 Component Sizing Information, AirLoopHVAC, AIR LOOP HVAC 3, Adjusted Cooling Design Air Flow Rate [m3/s], 0.24239
 Component Sizing Information, AirLoopHVAC, AIR LOOP HVAC 3, Adjusted Main Design Air Flow Rate [m3/s], 0.24239
 Component Sizing Information, AirLoopHVAC, AIR LOOP HVAC 3, User Heating Air Flow Ratio [], 0.30000
 Component Sizing Information, AirLoopHVAC, AIR LOOP HVAC 3, Calculated Heating Air Flow Ratio [], 1.00000
 Component Sizing Information, AirLoopHVAC, AIR LOOP HVAC 4, Sum of Air Terminal Maximum Heating Flow Rates [m3/s], 0.28465
 Component Sizing Information, AirLoopHVAC, AIR LOOP HVAC 4, Sum of Air Terminal Minimum Heating Flow Rates [m3/s], 0.28465
 Component Sizing Information, AirLoopHVAC, AIR LOOP HVAC 4, Sum of Air Terminal Maximum Flow Rates [m3/s], 0.28465
 Component Sizing Information, AirLoopHVAC, AIR LOOP HVAC 4, Adjusted Heating Design Air Flow Rate [m3/s], 0.28465
 Component Sizing Information, AirLoopHVAC, AIR LOOP HVAC 4, Adjusted Cooling Design Air Flow Rate [m3/s], 0.28465
 Component Sizing Information, AirLoopHVAC, AIR LOOP HVAC 4, Adjusted Main Design Air Flow Rate [m3/s], 0.28465
 Component Sizing Information, AirLoopHVAC, AIR LOOP HVAC 4, User Heating Air Flow Ratio [], 0.30000
 Component Sizing Information, AirLoopHVAC, AIR LOOP HVAC 4, Calculated Heating Air Flow Ratio [], 1.00000
 Component Sizing Information, AirLoopHVAC, AIR LOOP HVAC 5, Sum of Air Terminal Maximum Heating Flow Rates [m3/s], 0.33249
 Component Sizing Information, AirLoopHVAC, AIR LOOP HVAC 5, Sum of Air Terminal Minimum Heating Flow Rates [m3/s], 0.33249
 Component Sizing Information, AirLoopHVAC, AIR LOOP HVAC 5, Sum of Air Terminal Maximum Flow Rates [m3/s], 0.33249
 Component Sizing Information, AirLoopHVAC, AIR LOOP HVAC 5, Adjusted Heating Design Air Flow Rate [m3/s], 0.33249
 Component Sizing Information, AirLoopHVAC, AIR LOOP HVAC 5, Adjusted Cooling Design Air Flow Rate [m3/s], 0.33249
 Component Sizing Information, AirLoopHVAC, AIR LOOP HVAC 5, Adjusted Main Design Air Flow Rate [m3/s], 0.33249
 Component Sizing Information, AirLoopHVAC, AIR LOOP HVAC 5, User Heating Air Flow Ratio [], 0.30000
 Component Sizing Information, AirLoopHVAC, AIR LOOP HVAC 5, Calculated Heating Air Flow Ratio [], 1.00000
 Component Sizing Information, AirLoopHVAC, AIR LOOP HVAC 6, Sum of Air Terminal Maximum Heating Flow Rates [m3/s], 0.32470
 Component Sizing Information, AirLoopHVAC, AIR LOOP HVAC 6, Sum of Air Terminal Minimum Heating Flow Rates [m3/s], 0.32470
 Component Sizing Information, AirLoopHVAC, AIR LOOP HVAC 6, Sum of Air Terminal Maximum Flow Rates [m3/s], 0.32470
 Component Sizing Information, AirLoopHVAC, AIR LOOP HVAC 6, Adjusted Heating Design Air Flow Rate [m3/s], 0.32470
 Component Sizing Information, AirLoopHVAC, AIR LOOP HVAC 6, Adjusted Cooling Design Air Flow Rate [m3/s], 0.32470
 Component Sizing Information, AirLoopHVAC, AIR LOOP HVAC 6, Adjusted Main Design Air Flow Rate [m3/s], 0.32470
 Component Sizing Information, AirLoopHVAC, AIR LOOP HVAC 6, User Heating Air Flow Ratio [], 0.30000
 Component Sizing Information, AirLoopHVAC, AIR LOOP HVAC 6, Calculated Heating Air Flow Ratio [], 1.00000
 Component Sizing Information, AirLoopHVAC, AIR LOOP HVAC 7, Sum of Air Terminal Maximum Heating Flow Rates [m3/s], 0.41666
 Component Sizing Information, AirLoopHVAC, AIR LOOP HVAC 7, Sum of Air Terminal Minimum Heating Flow Rates [m3/s], 0.41666
 Component Sizing Information, AirLoopHVAC, AIR LOOP HVAC 7, Sum of Air Terminal Maximum Flow Rates [m3/s], 0.41666
 Component Sizing Information, AirLoopHVAC, AIR LOOP HVAC 7, Adjusted Heating Design Air Flow Rate [m3/s], 0.41666
 Component Sizing Information, AirLoopHVAC, AIR LOOP HVAC 7, Adjusted Cooling Design Air Flow Rate [m3/s], 0.41666
 Component Sizing Information, AirLoopHVAC, AIR LOOP HVAC 7, Adjusted Main Design Air Flow Rate [m3/s], 0.41666
 Component Sizing Information, AirLoopHVAC, AIR LOOP HVAC 7, User Heating Air Flow Ratio [], 0.30000
 Component Sizing Information, AirLoopHVAC, AIR LOOP HVAC 7, Calculated Heating Air Flow Ratio [], 1.00000
 Component Sizing Information, AirLoopHVAC, AIR LOOP HVAC 8, Sum of Air Terminal Maximum Heating Flow Rates [m3/s], 0.47410
 Component Sizing Information, AirLoopHVAC, AIR LOOP HVAC 8, Sum of Air Terminal Minimum Heating Flow Rates [m3/s], 0.47410
 Component Sizing Information, AirLoopHVAC, AIR LOOP HVAC 8, Sum of Air Terminal Maximum Flow Rates [m3/s], 0.47410
 Component Sizing Information, AirLoopHVAC, AIR LOOP HVAC 8, Adjusted Heating Design Air Flow Rate [m3/s], 0.47410
 Component Sizing Information, AirLoopHVAC, AIR LOOP HVAC 8, Adjusted Cooling Design Air Flow Rate [m3/s], 0.47410
 Component Sizing Information, AirLoopHVAC, AIR LOOP HVAC 8, Adjusted Main Design Air Flow Rate [m3/s], 0.47410
 Component Sizing Information, AirLoopHVAC, AIR LOOP HVAC 8, User Heating Air Flow Ratio [], 0.30000
 Component Sizing Information, AirLoopHVAC, AIR LOOP HVAC 8, Calculated Heating Air Flow Ratio [], 1.00000
 Component Sizing Information, AirLoopHVAC, AIR LOOP HVAC 9, Sum of Air Terminal Maximum Heating Flow Rates [m3/s], 0.35263
 Component Sizing Information, AirLoopHVAC, AIR LOOP HVAC 9, Sum of Air Terminal Minimum Heating Flow Rates [m3/s], 0.35263
 Component Sizing Information, AirLoopHVAC, AIR LOOP HVAC 9, Sum of Air Terminal Maximum Flow Rates [m3/s], 0.35263
 Component Sizing Information, AirLoopHVAC, AIR LOOP HVAC 9, Adjusted Heating Design Air Flow Rate [m3/s], 0.35263
 Component Sizing Information, AirLoopHVAC, AIR LOOP HVAC 9, Adjusted Cooling Design Air Flow Rate [m3/s], 0.35263
 Component Sizing Information, AirLoopHVAC, AIR LOOP HVAC 9, Adjusted Main Design Air Flow Rate [m3/s], 0.35263
 Component Sizing Information, AirLoopHVAC, AIR LOOP HVAC 9, User Heating Air Flow Ratio [], 0.30000
 Component Sizing Information, AirLoopHVAC, AIR LOOP HVAC 9, Calculated Heating Air Flow Ratio [], 1.00000
 Component Sizing Information, AirLoopHVAC, AIR LOOP HVAC 1, Design Supply Air Flow Rate [m3/s], 0.23027
 Component Sizing Information, AirLoopHVAC, AIR LOOP HVAC 10, Design Supply Air Flow Rate [m3/s], 0.32470
 Component Sizing Information, AirLoopHVAC, AIR LOOP HVAC 11, Design Supply Air Flow Rate [m3/s], 0.44992
 Component Sizing Information, AirLoopHVAC, AIR LOOP HVAC 12, Design Supply Air Flow Rate [m3/s], 0.51354
 Component Sizing Information, AirLoopHVAC, AIR LOOP HVAC 2, Design Supply Air Flow Rate [m3/s], 0.32470
 Component Sizing Information, AirLoopHVAC, AIR LOOP HVAC 3, Design Supply Air Flow Rate [m3/s], 0.24239
 Component Sizing Information, AirLoopHVAC, AIR LOOP HVAC 4, Design Supply Air Flow Rate [m3/s], 0.28465
 Component Sizing Information, AirLoopHVAC, AIR LOOP HVAC 5, Design Supply Air Flow Rate [m3/s], 0.33249
 Component Sizing Information, AirLoopHVAC, AIR LOOP HVAC 6, Design Supply Air Flow Rate [m3/s], 0.32470
 Component Sizing Information, AirLoopHVAC, AIR LOOP HVAC 7, Design Supply Air Flow Rate [m3/s], 0.41666
 Component Sizing Information, AirLoopHVAC, AIR LOOP HVAC 8, Design Supply Air Flow Rate [m3/s], 0.47410
 Component Sizing Information, AirLoopHVAC, AIR LOOP HVAC 9, Design Supply Air Flow Rate [m3/s], 0.35263
!<Controller:MechanicalVentilation>,Name,Availability Schedule Name,Demand Controlled Ventilation {Yes/No},System Outdoor Air Method,Zone Maximum Outdoor Air Fraction,Number of Zones,Zone Name,DSOA Name,DSZAD Name
 Controller:MechanicalVentilation,CONTROLLER MECHANICAL VENTILATION 1,ALWAYS ON DISCRETE HVAC_LIBRARY,No,ZoneSum,1.00,1,01_A1,HVAC_OA,01_A1 DESIGN SPEC ZONE AIR DIST
 Controller:MechanicalVentilation,CONTROLLER MECHANICAL VENTILATION 2,ALWAYS ON DISCRETE HVAC_LIBRARY,No,ZoneSum,1.00,1,01_A2,HVAC_OA,01_A2 DESIGN SPEC ZONE AIR DIST
 Controller:MechanicalVentilation,CONTROLLER MECHANICAL VENTILATION 3,ALWAYS ON DISCRETE HVAC_LIBRARY,No,ZoneSum,1.00,1,01_B2,HVAC_OA,01_B2 DESIGN SPEC ZONE AIR DIST
 Controller:MechanicalVentilation,CONTROLLER MECHANICAL VENTILATION 4,ALWAYS ON DISCRETE HVAC_LIBRARY,No,ZoneSum,1.00,1,01_C1,HVAC_OA,01_C1 DESIGN SPEC ZONE AIR DIST
 Controller:MechanicalVentilation,CONTROLLER MECHANICAL VENTILATION 5,ALWAYS ON DISCRETE HVAC_LIBRARY,No,ZoneSum,1.00,1,02_A1,HVAC_OA,02_A1 DESIGN SPEC ZONE AIR DIST
 Controller:MechanicalVentilation,CONTROLLER MECHANICAL VENTILATION 6,ALWAYS ON DISCRETE HVAC_LIBRARY,No,ZoneSum,1.00,1,02_A2,HVAC_OA,02_A2 DESIGN SPEC ZONE AIR DIST
 Controller:MechanicalVentilation,CONTROLLER MECHANICAL VENTILATION 7,ALWAYS ON DISCRETE HVAC_LIBRARY,No,ZoneSum,1.00,1,02_B2,HVAC_OA,02_B2 DESIGN SPEC ZONE AIR DIST
 Controller:MechanicalVentilation,CONTROLLER MECHANICAL VENTILATION 8,ALWAYS ON DISCRETE HVAC_LIBRARY,No,ZoneSum,1.00,1,02_C1,HVAC_OA,02_C1 DESIGN SPEC ZONE AIR DIST
 Controller:MechanicalVentilation,CONTROLLER MECHANICAL VENTILATION 9,ALWAYS ON DISCRETE HVAC_LIBRARY,No,ZoneSum,1.00,1,03_A1,HVAC_OA,03_A1 DESIGN SPEC ZONE AIR DIST
 Controller:MechanicalVentilation,CONTROLLER MECHANICAL VENTILATION 10,ALWAYS ON DISCRETE HVAC_LIBRARY,No,ZoneSum,1.00,1,03_A2,HVAC_OA,03_A2 DESIGN SPEC ZONE AIR DIST
 Controller:MechanicalVentilation,CONTROLLER MECHANICAL VENTILATION 11,ALWAYS ON DISCRETE HVAC_LIBRARY,No,ZoneSum,1.00,1,03_B2,HVAC_OA,03_B2 DESIGN SPEC ZONE AIR DIST
 Controller:MechanicalVentilation,CONTROLLER MECHANICAL VENTILATION 12,ALWAYS ON DISCRETE HVAC_LIBRARY,No,ZoneSum,1.00,1,03_C1,HVAC_OA,03_C1 DESIGN SPEC ZONE AIR DIST
 Component Sizing Information, Controller:OutdoorAir, OUTDOOR AIR CONTROLLER, Maximum Outdoor Air Flow Rate [m3/s], 0.23027
 Component Sizing Information, Controller:OutdoorAir, OUTDOOR AIR CONTROLLER, Minimum Outdoor Air Flow Rate [m3/s], 2.35974E-002
 Component Sizing Information, AirLoopHVAC:UnitarySystem, UNITARY - DX HEAT PUMP - CYCLING - ELEC REHEAT, Design Size Supply Air Flow Rate [m3/s], 0.23027
 Component Sizing Information, AirLoopHVAC:UnitarySystem, UNITARY - DX HEAT PUMP - CYCLING - ELEC REHEAT, Design Size Heating Supply Air Flow Rate [m3/s], 0.23027
 Component Sizing Information, AirLoopHVAC:UnitarySystem, UNITARY - DX HEAT PUMP - CYCLING - ELEC REHEAT, Design Size Cooling Supply Air Flow Rate [m3/s], 0.23027
 Component Sizing Information, AirLoopHVAC:UnitarySystem, UNITARY - DX HEAT PUMP - CYCLING - ELEC REHEAT, Design Size No Load Supply Air Flow Rate [m3/s], 0.23027
 Component Sizing Information, AirLoopHVAC:UnitarySystem, UNITARY - DX HEAT PUMP - CYCLING - ELEC REHEAT, Design Size Nominal Cooling Capacity [W], 5718.07470
 Component Sizing Information, AirLoopHVAC:UnitarySystem, UNITARY - DX HEAT PUMP - CYCLING - ELEC REHEAT, Design Size Nominal Heating Capacity [W], 5718.07470
 Component Sizing Information, AirLoopHVAC:UnitarySystem, UNITARY - DX HEAT PUMP - CYCLING - ELEC REHEAT, Design Size Maximum Supply Air Temperature [C], 16.70000
 Component Sizing Information, AirLoopHVAC:UnitarySystem, UNITARY - DX HEAT PUMP - CYCLING - ELEC REHEAT, User-Specified Maximum Supply Air Temperature [C], 80.00000
 Component Sizing Information, AirLoopHVAC:UnitarySystem, UNITARY - DX HEAT PUMP - CYCLING - ELEC REHEAT, Design Size Supplemental Heating Coil Nominal Capacity [W], 5718.07470
 Component Sizing Information, AirLoopHVAC:UnitarySystem, UNITARY - DX HEAT PUMP - CYCLING - ELEC REHEAT, User-Specified Supplemental Heating Coil Nominal Capacity [W], 5718.07470
 Component Sizing Information, AirLoopHVAC:UnitarySystem, UNITARY - DX HEAT PUMP - CYCLING - ELEC REHEAT, Fraction of Supply Air Flow That Goes Through the Controlling Zone, 1.00000
 Component Sizing Information, Fan:OnOff, FAN ON OFF 5, Design Size Maximum Flow Rate [m3/s], 0.23027
 Component Sizing Information, Coil:Cooling:DX:SingleSpeed, 1 SPD DX CLG COIL 4, Design Size Rated Air Flow Rate [m3/s], 0.23027
 Component Sizing Information, Coil:Cooling:DX:SingleSpeed, 1 SPD DX CLG COIL 4, Design Size Gross Rated Total Cooling Capacity [W], 5718.07470
 Component Sizing Information, Coil:Cooling:DX:SingleSpeed, 1 SPD DX CLG COIL 4, Design Size Gross Rated Sensible Heat Ratio, 0.69808
! <DX Cooling Coil Standard Rating Information>, Component Type, Component Name, Standard Rating (Net) Cooling Capacity {W}, Standard Rated Net COP {W/W}, EER {Btu/W-h}, SEER {Btu/W-h}, IEER {Btu/W-h}
 DX Cooling Coil Standard Rating Information, Coil:Cooling:DX:SingleSpeed, 1 SPD DX CLG COIL 4, 5536.4, 3.07, 10.47, 10.41, 10.78
 Component Sizing Information, Coil:Heating:DX:SingleSpeed, 1 SPD DX HTG COIL 3, Design Size Rated Air Flow Rate [m3/s], 0.23027
 Component Sizing Information, Coil:Heating:DX:SingleSpeed, 1 SPD DX HTG COIL 3, Design Size Gross Rated Heating Capacity [W], 5718.07470
 Component Sizing Information, Coil:Heating:DX:SingleSpeed, 1 SPD DX HTG COIL 3, Design Size Resistive Defrost Heater Capacity [W], 5718.07470
 Component Sizing Information, Coil:Heating:DX:SingleSpeed, 1 SPD DX HTG COIL 3, User-Specified Resistive Defrost Heater Capacity [W], 2000.00000
! <DX Heating Coil Standard Rating Information>, Component Type, Component Name, High Temperature Heating (net) Rating Capacity {W}, Low Temperature Heating (net) Rating Capacity {W}, HSPF {Btu/W-h}, Region Number
 DX Heating Coil Standard Rating Information, Coil:Heating:DX:SingleSpeed, 1 SPD DX HTG COIL 3, 5903.1, 3248.2, 6.54, 4
 Component Sizing Information, Coil:Heating:Electric, ELEC HTG COIL 5, Design Size Nominal Capacity [W], 5718.07470
 Component Sizing Information, Controller:OutdoorAir, OUTDOOR AIR CONTROLLER 9, Maximum Outdoor Air Flow Rate [m3/s], 0.32470
 Component Sizing Information, Controller:OutdoorAir, OUTDOOR AIR CONTROLLER 9, Minimum Outdoor Air Flow Rate [m3/s], 2.35974E-002
 Component Sizing Information, AirLoopHVAC:UnitarySystem, UNITARY - DX HEAT PUMP - CYCLING - ELEC REHEAT 9, Design Size Supply Air Flow Rate [m3/s], 0.32470
 Component Sizing Information, AirLoopHVAC:UnitarySystem, UNITARY - DX HEAT PUMP - CYCLING - ELEC REHEAT 9, Design Size Heating Supply Air Flow Rate [m3/s], 0.32470
 Component Sizing Information, AirLoopHVAC:UnitarySystem, UNITARY - DX HEAT PUMP - CYCLING - ELEC REHEAT 9, Design Size Cooling Supply Air Flow Rate [m3/s], 0.32470
 Component Sizing Information, AirLoopHVAC:UnitarySystem, UNITARY - DX HEAT PUMP - CYCLING - ELEC REHEAT 9, Design Size No Load Supply Air Flow Rate [m3/s], 0.32470
 Component Sizing Information, AirLoopHVAC:UnitarySystem, UNITARY - DX HEAT PUMP - CYCLING - ELEC REHEAT 9, Design Size Nominal Cooling Capacity [W], 8063.07030
 Component Sizing Information, AirLoopHVAC:UnitarySystem, UNITARY - DX HEAT PUMP - CYCLING - ELEC REHEAT 9, Design Size Nominal Heating Capacity [W], 8063.07030
 Component Sizing Information, AirLoopHVAC:UnitarySystem, UNITARY - DX HEAT PUMP - CYCLING - ELEC REHEAT 9, Design Size Maximum Supply Air Temperature [C], 16.70000
 Component Sizing Information, AirLoopHVAC:UnitarySystem, UNITARY - DX HEAT PUMP - CYCLING - ELEC REHEAT 9, User-Specified Maximum Supply Air Temperature [C], 80.00000
 Component Sizing Information, AirLoopHVAC:UnitarySystem, UNITARY - DX HEAT PUMP - CYCLING - ELEC REHEAT 9, Design Size Supplemental Heating Coil Nominal Capacity [W], 8063.07030
 Component Sizing Information, AirLoopHVAC:UnitarySystem, UNITARY - DX HEAT PUMP - CYCLING - ELEC REHEAT 9, User-Specified Supplemental Heating Coil Nominal Capacity [W], 8063.07030
 Component Sizing Information, AirLoopHVAC:UnitarySystem, UNITARY - DX HEAT PUMP - CYCLING - ELEC REHEAT 9, Fraction of Supply Air Flow That Goes Through the Controlling Zone, 1.00000
 Component Sizing Information, Fan:OnOff, FAN ON OFF 14, Design Size Maximum Flow Rate [m3/s], 0.32470
 Component Sizing Information, Coil:Cooling:DX:SingleSpeed, 1 SPD DX CLG COIL 13, Design Size Rated Air Flow Rate [m3/s], 0.32470
 Component Sizing Information, Coil:Cooling:DX:SingleSpeed, 1 SPD DX CLG COIL 13, Design Size Gross Rated Total Cooling Capacity [W], 8063.07030
 Component Sizing Information, Coil:Cooling:DX:SingleSpeed, 1 SPD DX CLG COIL 13, Design Size Gross Rated Sensible Heat Ratio, 0.69808
 DX Cooling Coil Standard Rating Information, Coil:Cooling:DX:SingleSpeed, 1 SPD DX CLG COIL 13, 7806.9, 3.07, 10.47, 10.41, 10.78
 Component Sizing Information, Coil:Heating:DX:SingleSpeed, 1 SPD DX HTG COIL 12, Design Size Rated Air Flow Rate [m3/s], 0.32470
 Component Sizing Information, Coil:Heating:DX:SingleSpeed, 1 SPD DX HTG COIL 12, Design Size Gross Rated Heating Capacity [W], 8063.07030
 Component Sizing Information, Coil:Heating:DX:SingleSpeed, 1 SPD DX HTG COIL 12, Design Size Resistive Defrost Heater Capacity [W], 8063.07030
 Component Sizing Information, Coil:Heating:DX:SingleSpeed, 1 SPD DX HTG COIL 12, User-Specified Resistive Defrost Heater Capacity [W], 2000.00000
 DX Heating Coil Standard Rating Information, Coil:Heating:DX:SingleSpeed, 1 SPD DX HTG COIL 12, 8323.9, 4580.3, 6.54, 4
 Component Sizing Information, Coil:Heating:Electric, ELEC HTG COIL 14, Design Size Nominal Capacity [W], 8063.07030
 Component Sizing Information, Controller:OutdoorAir, OUTDOOR AIR CONTROLLER 10, Maximum Outdoor Air Flow Rate [m3/s], 0.44992
 Component Sizing Information, Controller:OutdoorAir, OUTDOOR AIR CONTROLLER 10, Minimum Outdoor Air Flow Rate [m3/s], 2.35974E-002
 Component Sizing Information, AirLoopHVAC:UnitarySystem, UNITARY - DX HEAT PUMP - CYCLING - ELEC REHEAT 10, Design Size Supply Air Flow Rate [m3/s], 0.44992
 Component Sizing Information, AirLoopHVAC:UnitarySystem, UNITARY - DX HEAT PUMP - CYCLING - ELEC REHEAT 10, Design Size Heating Supply Air Flow Rate [m3/s], 0.44992
 Component Sizing Information, AirLoopHVAC:UnitarySystem, UNITARY - DX HEAT PUMP - CYCLING - ELEC REHEAT 10, Design Size Cooling Supply Air Flow Rate [m3/s], 0.44992
 Component Sizing Information, AirLoopHVAC:UnitarySystem, UNITARY - DX HEAT PUMP - CYCLING - ELEC REHEAT 10, Design Size No Load Supply Air Flow Rate [m3/s], 0.44992
 Component Sizing Information, AirLoopHVAC:UnitarySystem, UNITARY - DX HEAT PUMP - CYCLING - ELEC REHEAT 10, Design Size Nominal Cooling Capacity [W], 11172.62597
 Component Sizing Information, AirLoopHVAC:UnitarySystem, UNITARY - DX HEAT PUMP - CYCLING - ELEC REHEAT 10, Design Size Nominal Heating Capacity [W], 11172.62597
 Component Sizing Information, AirLoopHVAC:UnitarySystem, UNITARY - DX HEAT PUMP - CYCLING - ELEC REHEAT 10, Design Size Maximum Supply Air Temperature [C], 16.70000
 Component Sizing Information, AirLoopHVAC:UnitarySystem, UNITARY - DX HEAT PUMP - CYCLING - ELEC REHEAT 10, User-Specified Maximum Supply Air Temperature [C], 80.00000
 Component Sizing Information, AirLoopHVAC:UnitarySystem, UNITARY - DX HEAT PUMP - CYCLING - ELEC REHEAT 10, Design Size Supplemental Heating Coil Nominal Capacity [W], 11172.62597
 Component Sizing Information, AirLoopHVAC:UnitarySystem, UNITARY - DX HEAT PUMP - CYCLING - ELEC REHEAT 10, User-Specified Supplemental Heating Coil Nominal Capacity [W], 11172.62597
 Component Sizing Information, AirLoopHVAC:UnitarySystem, UNITARY - DX HEAT PUMP - CYCLING - ELEC REHEAT 10, Fraction of Supply Air Flow That Goes Through the Controlling Zone, 1.00000
 Component Sizing Information, Fan:OnOff, FAN ON OFF 15, Design Size Maximum Flow Rate [m3/s], 0.44992
 Component Sizing Information, Coil:Cooling:DX:SingleSpeed, 1 SPD DX CLG COIL 14, Design Size Rated Air Flow Rate [m3/s], 0.44992
 Component Sizing Information, Coil:Cooling:DX:SingleSpeed, 1 SPD DX CLG COIL 14, Design Size Gross Rated Total Cooling Capacity [W], 11172.62597
 Component Sizing Information, Coil:Cooling:DX:SingleSpeed, 1 SPD DX CLG COIL 14, Design Size Gross Rated Sensible Heat Ratio, 0.69808
 DX Cooling Coil Standard Rating Information, Coil:Cooling:DX:SingleSpeed, 1 SPD DX CLG COIL 14, 10817.7, 3.07, 10.47, 10.41, 10.78
 Component Sizing Information, Coil:Heating:DX:SingleSpeed, 1 SPD DX HTG COIL 13, Design Size Rated Air Flow Rate [m3/s], 0.44992
 Component Sizing Information, Coil:Heating:DX:SingleSpeed, 1 SPD DX HTG COIL 13, Design Size Gross Rated Heating Capacity [W], 11172.62597
 Component Sizing Information, Coil:Heating:DX:SingleSpeed, 1 SPD DX HTG COIL 13, Design Size Resistive Defrost Heater Capacity [W], 11172.62597
 Component Sizing Information, Coil:Heating:DX:SingleSpeed, 1 SPD DX HTG COIL 13, User-Specified Resistive Defrost Heater Capacity [W], 2000.00000
 DX Heating Coil Standard Rating Information, Coil:Heating:DX:SingleSpeed, 1 SPD DX HTG COIL 13, 11534.1, 6346.7, 6.54, 4
 Component Sizing Information, Coil:Heating:Electric, ELEC HTG COIL 15, Design Size Nominal Capacity [W], 11172.62597
 Component Sizing Information, Controller:OutdoorAir, OUTDOOR AIR CONTROLLER 11, Maximum Outdoor Air Flow Rate [m3/s], 0.51354
 Component Sizing Information, Controller:OutdoorAir, OUTDOOR AIR CONTROLLER 11, Minimum Outdoor Air Flow Rate [m3/s], 2.35974E-002
 Component Sizing Information, AirLoopHVAC:UnitarySystem, UNITARY - DX HEAT PUMP - CYCLING - ELEC REHEAT 11, Design Size Supply Air Flow Rate [m3/s], 0.51354
 Component Sizing Information, AirLoopHVAC:UnitarySystem, UNITARY - DX HEAT PUMP - CYCLING - ELEC REHEAT 11, Design Size Heating Supply Air Flow Rate [m3/s], 0.51354
 Component Sizing Information, AirLoopHVAC:UnitarySystem, UNITARY - DX HEAT PUMP - CYCLING - ELEC REHEAT 11, Design Size Cooling Supply Air Flow Rate [m3/s], 0.51354
 Component Sizing Information, AirLoopHVAC:UnitarySystem, UNITARY - DX HEAT PUMP - CYCLING - ELEC REHEAT 11, Design Size No Load Supply Air Flow Rate [m3/s], 0.51354
 Component Sizing Information, AirLoopHVAC:UnitarySystem, UNITARY - DX HEAT PUMP - CYCLING - ELEC REHEAT 11, Design Size Nominal Cooling Capacity [W], 12752.41602
 Component Sizing Information, AirLoopHVAC:UnitarySystem, UNITARY - DX HEAT PUMP - CYCLING - ELEC REHEAT 11, Design Size Nominal Heating Capacity [W], 12752.41602
 Component Sizing Information, AirLoopHVAC:UnitarySystem, UNITARY - DX HEAT PUMP - CYCLING - ELEC REHEAT 11, Design Size Maximum Supply Air Temperature [C], 16.70000
 Component Sizing Information, AirLoopHVAC:UnitarySystem, UNITARY - DX HEAT PUMP - CYCLING - ELEC REHEAT 11, User-Specified Maximum Supply Air Temperature [C], 80.00000
 Component Sizing Information, AirLoopHVAC:UnitarySystem, UNITARY - DX HEAT PUMP - CYCLING - ELEC REHEAT 11, Design Size Supplemental Heating Coil Nominal Capacity [W], 12752.41602
 Component Sizing Information, AirLoopHVAC:UnitarySystem, UNITARY - DX HEAT PUMP - CYCLING - ELEC REHEAT 11, User-Specified Supplemental Heating Coil Nominal Capacity [W], 12752.41602
 Component Sizing Information, AirLoopHVAC:UnitarySystem, UNITARY - DX HEAT PUMP - CYCLING - ELEC REHEAT 11, Fraction of Supply Air Flow That Goes Through the Controlling Zone, 1.00000
 Component Sizing Information, Fan:OnOff, FAN ON OFF 16, Design Size Maximum Flow Rate [m3/s], 0.51354
 Component Sizing Information, Coil:Cooling:DX:SingleSpeed, 1 SPD DX CLG COIL 15, Design Size Rated Air Flow Rate [m3/s], 0.51354
 Component Sizing Information, Coil:Cooling:DX:SingleSpeed, 1 SPD DX CLG COIL 15, Design Size Gross Rated Total Cooling Capacity [W], 12752.41602
 Component Sizing Information, Coil:Cooling:DX:SingleSpeed, 1 SPD DX CLG COIL 15, Design Size Gross Rated Sensible Heat Ratio, 0.69808
 DX Cooling Coil Standard Rating Information, Coil:Cooling:DX:SingleSpeed, 1 SPD DX CLG COIL 15, 12347.3, 3.07, 10.47, 10.41, 10.78
 Component Sizing Information, Coil:Heating:DX:SingleSpeed, 1 SPD DX HTG COIL 14, Design Size Rated Air Flow Rate [m3/s], 0.51354
 Component Sizing Information, Coil:Heating:DX:SingleSpeed, 1 SPD DX HTG COIL 14, Design Size Gross Rated Heating Capacity [W], 12752.41602
 Component Sizing Information, Coil:Heating:DX:SingleSpeed, 1 SPD DX HTG COIL 14, Design Size Resistive Defrost Heater Capacity [W], 12752.41602
 Component Sizing Information, Coil:Heating:DX:SingleSpeed, 1 SPD DX HTG COIL 14, User-Specified Resistive Defrost Heater Capacity [W], 2000.00000
 DX Heating Coil Standard Rating Information, Coil:Heating:DX:SingleSpeed, 1 SPD DX HTG COIL 14, 13165.0, 7244.1, 6.54, 4
 Component Sizing Information, Coil:Heating:Electric, ELEC HTG COIL 16, Design Size Nominal Capacity [W], 12752.41602
 Component Sizing Information, Controller:OutdoorAir, OUTDOOR AIR CONTROLLER 1, Maximum Outdoor Air Flow Rate [m3/s], 0.32470
 Component Sizing Information, Controller:OutdoorAir, OUTDOOR AIR CONTROLLER 1, Minimum Outdoor Air Flow Rate [m3/s], 2.35974E-002
 Component Sizing Information, AirLoopHVAC:UnitarySystem, UNITARY - DX HEAT PUMP - CYCLING - ELEC REHEAT 1, Design Size Supply Air Flow Rate [m3/s], 0.32470
 Component Sizing Information, AirLoopHVAC:UnitarySystem, UNITARY - DX HEAT PUMP - CYCLING - ELEC REHEAT 1, Design Size Heating Supply Air Flow Rate [m3/s], 0.32470
 Component Sizing Information, AirLoopHVAC:UnitarySystem, UNITARY - DX HEAT PUMP - CYCLING - ELEC REHEAT 1, Design Size Cooling Supply Air Flow Rate [m3/s], 0.32470
[...]
 Warmup Convergence Information,01_B2,SizingPeriod: ANCHORAGEMERRILLFIELDANNCLG.4CONDNSDBMWB,7.0692726631E-003,1.7759388684E-002,Pass,Pass,6.3411450194E-002,0.2031478314,Pass,Pass
 Warmup Convergence Information,01_C1,SizingPeriod: ANCHORAGEMERRILLFIELDANNCLG.4CONDNSDBMWB,8.5666632721E-003,2.1514906559E-002,Pass,Pass,7.9981082087E-002,0.2497092848,Pass,Pass
 Warmup Convergence Information,02_A1,SizingPeriod: ANCHORAGEMERRILLFIELDANNCLG.4CONDNSDBMWB,3.5601367732E-005,6.5270164404E-005,Pass,Pass,1.6474059307E-002,3.0194844602E-002,Pass,Pass
 Warmup Convergence Information,02_A2,SizingPeriod: ANCHORAGEMERRILLFIELDANNCLG.4CONDNSDBMWB,4.8201327908E-005,8.2679969354E-005,Pass,Pass,1.6650189419E-002,2.8818584496E-002,Pass,Pass
 Warmup Convergence Information,02_B2,SizingPeriod: ANCHORAGEMERRILLFIELDANNCLG.4CONDNSDBMWB,2.7387137481E-005,4.6258990157E-005,Pass,Pass,1.9362608913E-002,2.9741942119E-002,Pass,Pass
 Warmup Convergence Information,02_C1,SizingPeriod: ANCHORAGEMERRILLFIELDANNCLG.4CONDNSDBMWB,2.8237464193E-005,4.6141835921E-005,Pass,Pass,1.9475667483E-002,2.8023009763E-002,Pass,Pass
 Warmup Convergence Information,03_A1,SizingPeriod: ANCHORAGEMERRILLFIELDANNCLG.4CONDNSDBMWB,3.3424743225E-005,6.2510435787E-005,Pass,Pass,1.7967989818E-002,3.3609630087E-002,Pass,Pass
 Warmup Convergence Information,03_A2,SizingPeriod: ANCHORAGEMERRILLFIELDANNCLG.4CONDNSDBMWB,3.3116943208E-005,6.6311003148E-005,Pass,Pass,1.8324411928E-002,3.2812340754E-002,Pass,Pass
 Warmup Convergence Information,03_B2,SizingPeriod: ANCHORAGEMERRILLFIELDANNCLG.4CONDNSDBMWB,2.5283885871E-005,4.3931733246E-005,Pass,Pass,2.1024086006E-002,3.3239988009E-002,Pass,Pass
 Warmup Convergence Information,03_C1,SizingPeriod: ANCHORAGEMERRILLFIELDANNCLG.4CONDNSDBMWB,2.6055197540E-005,4.2394925492E-005,Pass,Pass,2.1171613322E-002,3.1117738556E-002,Pass,Pass
Environment,ANCHORAGEMERRILLFIELDANNCLG.4CONDNSDPMDB,SizingPeriod:DesignDay,07/21,07/21,SummerDesignDay,1,N/A,N/A,N/A,N/A,N/A,N/A
Environment:Daylight Saving,No,SizingPeriod:DesignDay
Environment:Design Day Data,17.20,6.80,DefaultMultipliers,100821,270,2.8,0.00,No,No
Environment:Design Day Misc,202,1084.4,0.2082,0.1365,1.0,-6.23,20.6,ASHRAETau
Environment:WarmupDays,  6
 Warmup Convergence Information,01_A1,SizingPeriod: ANCHORAGEMERRILLFIELDANNCLG.4CONDNSDPMDB,5.4273055176E-005,1.2119597775E-004,Pass,Pass,3.7511200502E-002,7.4755104440E-002,Pass,Pass
 Warmup Convergence Information,01_A2,SizingPeriod: ANCHORAGEMERRILLFIELDANNCLG.4CONDNSDPMDB,4.9737404020E-005,9.7314669659E-005,Pass,Pass,2.7690342313E-002,5.6358009532E-002,Pass,Pass
 Warmup Convergence Information,01_B2,SizingPeriod: ANCHORAGEMERRILLFIELDANNCLG.4CONDNSDPMDB,1.6046607142E-002,3.5013030546E-002,Pass,Pass,4.8371876154E-002,0.1609432742,Pass,Pass
 Warmup Convergence Information,01_C1,SizingPeriod: ANCHORAGEMERRILLFIELDANNCLG.4CONDNSDPMDB,1.6413779074E-002,3.0955744366E-002,Pass,Pass,5.5149135677E-002,0.1667495055,Pass,Pass
 Warmup Convergence Information,02_A1,SizingPeriod: ANCHORAGEMERRILLFIELDANNCLG.4CONDNSDPMDB,3.6712800760E-005,7.3810961976E-005,Pass,Pass,1.7202266247E-002,3.1493553242E-002,Pass,Pass
 Warmup Convergence Information,02_A2,SizingPeriod: ANCHORAGEMERRILLFIELDANNCLG.4CONDNSDPMDB,4.8529743782E-005,9.4436685626E-005,Pass,Pass,1.7505506009E-002,3.0318693027E-002,Pass,Pass
 Warmup Convergence Information,02_B2,SizingPeriod: ANCHORAGEMERRILLFIELDANNCLG.4CONDNSDPMDB,2.7559215856E-005,5.0791555389E-005,Pass,Pass,2.0894818666E-002,3.2183232354E-002,Pass,Pass
 Warmup Convergence Information,02_C1,SizingPeriod: ANCHORAGEMERRILLFIELDANNCLG.4CONDNSDPMDB,2.8638935715E-005,4.9877733848E-005,Pass,Pass,2.0984228679E-002,3.0093490448E-002,Pass,Pass
 Warmup Convergence Information,03_A1,SizingPeriod: ANCHORAGEMERRILLFIELDANNCLG.4CONDNSDPMDB,3.4757612760E-005,7.0617387276E-005,Pass,Pass,1.8976511360E-002,3.5488217249E-002,Pass,Pass
 Warmup Convergence Information,03_A2,SizingPeriod: ANCHORAGEMERRILLFIELDANNCLG.4CONDNSDPMDB,3.4372270856E-005,7.5343996835E-005,Pass,Pass,1.9667393964E-002,3.5233798112E-002,Pass,Pass
 Warmup Convergence Information,03_B2,SizingPeriod: ANCHORAGEMERRILLFIELDANNCLG.4CONDNSDPMDB,2.5777969993E-005,4.8010529507E-005,Pass,Pass,2.2994648341E-002,3.6676930321E-002,Pass,Pass
 Warmup Convergence Information,03_C1,SizingPeriod: ANCHORAGEMERRILLFIELDANNCLG.4CONDNSDPMDB,2.6412759423E-005,4.5482917059E-005,Pass,Pass,2.3097526152E-002,3.4162865884E-002,Pass,Pass
Environment,ANCHORAGEMERRILLFIELDANNCLG.4CONDNSENTHMDB,SizingPeriod:DesignDay,07/21,07/21,SummerDesignDay,1,N/A,N/A,N/A,N/A,N/A,N/A
Environment:Daylight Saving,No,SizingPeriod:DesignDay
Environment:Design Day Data,21.30,6.80,DefaultMultipliers,100821,270,2.8,0.00,No,No
Environment:Design Day Misc,202,1084.4,0.2082,0.1365,1.0,-6.23,20.6,ASHRAETau
Environment:WarmupDays,  6
 Warmup Convergence Information,01_A1,SizingPeriod: ANCHORAGEMERRILLFIELDANNCLG.4CONDNSENTHMDB,6.5377364882E-005,1.5282368305E-004,Pass,Pass,3.4094300745E-002,6.8453968261E-002,Pass,Pass
 Warmup Convergence Information,01_A2,SizingPeriod: ANCHORAGEMERRILLFIELDANNCLG.4CONDNSENTHMDB,6.2842215377E-005,1.2240368437E-004,Pass,Pass,2.6252355351E-002,5.3577672573E-002,Pass,Pass
 Warmup Convergence Information,01_B2,SizingPeriod: ANCHORAGEMERRILLFIELDANNCLG.4CONDNSENTHMDB,9.2339421284E-003,2.2969541046E-002,Pass,Pass,5.8671596505E-002,0.2057951549,Pass,Pass
 Warmup Convergence Information,01_C1,SizingPeriod: ANCHORAGEMERRILLFIELDANNCLG.4CONDNSENTHMDB,1.0470464802E-002,2.4123697469E-002,Pass,Pass,7.6240946834E-002,0.3108651636,Pass,Pass
 Warmup Convergence Information,02_A1,SizingPeriod: ANCHORAGEMERRILLFIELDANNCLG.4CONDNSENTHMDB,4.3003092569E-005,9.2675594386E-005,Pass,Pass,1.6639358376E-002,3.0487576536E-002,Pass,Pass
 Warmup Convergence Information,02_A2,SizingPeriod: ANCHORAGEMERRILLFIELDANNCLG.4CONDNSENTHMDB,5.9236657400E-005,1.1816689045E-004,Pass,Pass,1.6842836276E-002,2.9169566684E-002,Pass,Pass
 Warmup Convergence Information,02_B2,SizingPeriod: ANCHORAGEMERRILLFIELDANNCLG.4CONDNSENTHMDB,3.2742481139E-005,6.1547465453E-005,Pass,Pass,1.9697808148E-002,3.0274193317E-002,Pass,Pass
 Warmup Convergence Information,02_C1,SizingPeriod: ANCHORAGEMERRILLFIELDANNCLG.4CONDNSENTHMDB,3.2135174435E-005,5.9927857043E-005,Pass,Pass,1.9808333544E-002,2.8470050067E-002,Pass,Pass
 Warmup Convergence Information,03_A1,SizingPeriod: ANCHORAGEMERRILLFIELDANNCLG.4CONDNSENTHMDB,4.1334326156E-005,8.8956644066E-005,Pass,Pass,1.8187620124E-002,3.4007926238E-002,Pass,Pass
 Warmup Convergence Information,03_A2,SizingPeriod: ANCHORAGEMERRILLFIELDANNCLG.4CONDNSENTHMDB,4.2956250005E-005,9.4372668808E-005,Pass,Pass,1.8618299787E-002,3.3331088486E-002,Pass,Pass
 Warmup Convergence Information,03_B2,SizingPeriod: ANCHORAGEMERRILLFIELDANNCLG.4CONDNSENTHMDB,3.1141259241E-005,5.7882466432E-005,Pass,Pass,2.1444822520E-002,3.3943086892E-002,Pass,Pass
 Warmup Convergence Information,03_C1,SizingPeriod: ANCHORAGEMERRILLFIELDANNCLG.4CONDNSENTHMDB,2.9879611424E-005,5.4650758539E-005,Pass,Pass,2.1579166159E-002,3.1735813694E-002,Pass,Pass
Environment,ANCHORAGEMERRILLFIELDANNCLG.4CONDNSWBMDB,SizingPeriod:DesignDay,07/21,07/21,SummerDesignDay,1,N/A,N/A,N/A,N/A,N/A,N/A
Environment:Daylight Saving,No,SizingPeriod:DesignDay
Environment:Design Day Data,21.30,6.80,DefaultMultipliers,100821,270,2.8,0.00,No,No
Environment:Design Day Misc,202,1084.4,0.2082,0.1365,1.0,-6.23,20.6,ASHRAETau
Environment:WarmupDays,  6
 Warmup Convergence Information,01_A1,SizingPeriod: ANCHORAGEMERRILLFIELDANNCLG.4CONDNSWBMDB,5.4480015677E-005,1.1639886679E-004,Pass,Pass,3.4125122311E-002,6.8528548744E-002,Pass,Pass
 Warmup Convergence Information,01_A2,SizingPeriod: ANCHORAGEMERRILLFIELDANNCLG.4CONDNSWBMDB,5.0534739938E-005,9.4841963488E-005,Pass,Pass,2.6263232624E-002,5.3611054001E-002,Pass,Pass
 Warmup Convergence Information,01_B2,SizingPeriod: ANCHORAGEMERRILLFIELDANNCLG.4CONDNSWBMDB,9.2490176205E-003,2.3067871485E-002,Pass,Pass,5.8879986422E-002,0.2077548992,Pass,Pass
 Warmup Convergence Information,01_C1,SizingPeriod: ANCHORAGEMERRILLFIELDANNCLG.4CONDNSWBMDB,1.0488088390E-002,2.4153462331E-002,Pass,Pass,7.6777309466E-002,0.3162142974,Pass,Pass
 Warmup Convergence Information,02_A1,SizingPeriod: ANCHORAGEMERRILLFIELDANNCLG.4CONDNSWBMDB,3.7302388390E-005,7.2750362298E-005,Pass,Pass,1.6642561787E-002,3.0501336258E-002,Pass,Pass
 Warmup Convergence Information,02_A2,SizingPeriod: ANCHORAGEMERRILLFIELDANNCLG.4CONDNSWBMDB,5.1002970970E-005,9.3212844596E-005,Pass,Pass,1.6847266000E-002,2.9181628917E-002,Pass,Pass
 Warmup Convergence Information,02_B2,SizingPeriod: ANCHORAGEMERRILLFIELDANNCLG.4CONDNSWBMDB,2.8877125249E-005,5.0760908418E-005,Pass,Pass,1.9702713573E-002,3.0295474390E-002,Pass,Pass
 Warmup Convergence Information,02_C1,SizingPeriod: ANCHORAGEMERRILLFIELDANNCLG.4CONDNSWBMDB,2.8934154939E-005,4.9615392293E-005,Pass,Pass,1.9812118940E-002,2.8493115040E-002,Pass,Pass
 Warmup Convergence Information,03_A1,SizingPeriod: ANCHORAGEMERRILLFIELDANNCLG.4CONDNSWBMDB,3.5408327553E-005,6.9627154500E-005,Pass,Pass,1.8193043535E-002,3.4038040937E-002,Pass,Pass
 Warmup Convergence Information,03_A2,SizingPeriod: ANCHORAGEMERRILLFIELDANNCLG.4CONDNSWBMDB,3.5485174060E-005,7.4943647577E-005,Pass,Pass,1.8624531405E-002,3.3362894745E-002,Pass,Pass
 Warmup Convergence Information,03_B2,SizingPeriod: ANCHORAGEMERRILLFIELDANNCLG.4CONDNSWBMDB,2.6980188678E-005,4.8175932005E-005,Pass,Pass,2.1452129996E-002,3.3990429952E-002,Pass,Pass
 Warmup Convergence Information,03_C1,SizingPeriod: ANCHORAGEMERRILLFIELDANNCLG.4CONDNSWBMDB,2.6797419946E-005,4.5488702482E-005,Pass,Pass,2.1589829034E-002,3.1782471598E-002,Pass,Pass
Environment,ANCHORAGEMERRILLFIELDANNHTG99.6CONDNSDB,SizingPeriod:DesignDay,01/21,01/21,WinterDesignDay,1,N/A,N/A,N/A,N/A,N/A,N/A
Environment:Daylight Saving,No,SizingPeriod:DesignDay
Environment:Design Day Data,-23.90,0.00,DefaultMultipliers,100821,100,0.7,0.00,No,No
Environment:Design Day Misc, 21,1229.0,0.1415,5.7310E-002,1.0,-11.15,-20.1,ASHRAEClearSky
Environment:WarmupDays,  6
 Warmup Convergence Information,01_A1,SizingPeriod: ANCHORAGEMERRILLFIELDANNHTG99.6CONDNSDB,7.0416689968E-002,7.9273246003E-002,Pass,Pass,1.0560526941E-002,3.1998611919E-002,Pass,Pass
 Warmup Convergence Information,01_A2,SizingPeriod: ANCHORAGEMERRILLFIELDANNHTG99.6CONDNSDB,9.3814736080E-002,0.1085150393,Pass,Pass,1.3898806535E-002,2.9145808791E-002,Pass,Pass
 Warmup Convergence Information,01_B2,SizingPeriod: ANCHORAGEMERRILLFIELDANNHTG99.6CONDNSDB,6.3639394317E-002,6.5359758527E-002,Pass,Pass,4.4582877985E-003,7.9828800587E-003,Pass,Pass
 Warmup Convergence Information,01_C1,SizingPeriod: ANCHORAGEMERRILLFIELDANNHTG99.6CONDNSDB,5.7223147960E-002,5.7904220572E-002,Pass,Pass,4.7537804407E-003,8.3248694960E-003,Pass,Pass
 Warmup Convergence Information,02_A1,SizingPeriod: ANCHORAGEMERRILLFIELDANNHTG99.6CONDNSDB,1.8869981112E-002,3.1044827232E-002,Pass,Pass,1.7213192589E-002,4.5875401274E-002,Pass,Pass
 Warmup Convergence Information,02_A2,SizingPeriod: ANCHORAGEMERRILLFIELDANNHTG99.6CONDNSDB,4.4572891943E-002,5.6644935405E-002,Pass,Pass,1.5353732314E-002,4.1697811612E-002,Pass,Pass
 Warmup Convergence Information,02_B2,SizingPeriod: ANCHORAGEMERRILLFIELDANNHTG99.6CONDNSDB,4.9121669043E-002,5.1768363032E-002,Pass,Pass,1.0344989492E-002,2.5345569304E-002,Pass,Pass
 Warmup Convergence Information,02_C1,SizingPeriod: ANCHORAGEMERRILLFIELDANNHTG99.6CONDNSDB,3.9710410347E-002,4.6029887729E-002,Pass,Pass,1.2818601839E-002,3.8407536302E-002,Pass,Pass
 Warmup Convergence Information,03_A1,SizingPeriod: ANCHORAGEMERRILLFIELDANNHTG99.6CONDNSDB,3.3322356224E-002,3.9955355044E-002,Pass,Pass,1.6532360544E-002,4.8953991849E-002,Pass,Pass
 Warmup Convergence Information,03_A2,SizingPeriod: ANCHORAGEMERRILLFIELDANNHTG99.6CONDNSDB,4.8213313541E-002,5.2615785809E-002,Pass,Pass,1.4162409061E-002,5.3624183884E-002,Pass,Pass
 Warmup Convergence Information,03_B2,SizingPeriod: ANCHORAGEMERRILLFIELDANNHTG99.6CONDNSDB,6.1113789671E-002,5.9781472420E-002,Pass,Pass,7.5825981709E-003,1.3347763527E-002,Pass,Pass
 Warmup Convergence Information,03_C1,SizingPeriod: ANCHORAGEMERRILLFIELDANNHTG99.6CONDNSDB,5.4213023340E-002,5.2660835996E-002,Pass,Pass,7.8839252516E-003,1.3730273526E-002,Pass,Pass
Environment,ANCHORAGEMERRILLFIELDANNHTGWIND99.6CONDNSWSMCDB,SizingPeriod:DesignDay,01/21,01/21,WinterDesignDay,1,N/A,N/A,N/A,N/A,N/A,N/A
Environment:Daylight Saving,No,SizingPeriod:DesignDay
Environment:Design Day Data,-7.50,0.00,DefaultMultipliers,100821,100,8.1,0.00,No,No
Environment:Design Day Misc, 21,1229.0,0.1415,5.7310E-002,1.0,-11.15,-20.1,ASHRAEClearSky
Environment:WarmupDays,  6
 Warmup Convergence Information,01_A1,SizingPeriod: ANCHORAGEMERRILLFIELDANNHTGWIND99.6CONDNSWSMCDB,3.3017336663E-002,5.0491885528E-002,Pass,Pass,2.1506140580E-002,6.5502877300E-002,Pass,Pass
 Warmup Convergence Information,01_A2,SizingPeriod: ANCHORAGEMERRILLFIELDANNHTGWIND99.6CONDNSWSMCDB,3.5946026664E-002,6.6303450035E-002,Pass,Pass,2.2494343468E-002,5.6808584648E-002,Pass,Pass
 Warmup Convergence Information,01_B2,SizingPeriod: ANCHORAGEMERRILLFIELDANNHTGWIND99.6CONDNSWSMCDB,4.1530469686E-002,6.2430983582E-002,Pass,Pass,3.0772469827E-002,7.5638713884E-002,Pass,Pass
 Warmup Convergence Information,01_C1,SizingPeriod: ANCHORAGEMERRILLFIELDANNHTGWIND99.6CONDNSWSMCDB,4.1110228784E-002,5.6562935733E-002,Pass,Pass,2.8068404847E-002,6.8556123712E-002,Pass,Pass
 Warmup Convergence Information,02_A1,SizingPeriod: ANCHORAGEMERRILLFIELDANNHTGWIND99.6CONDNSWSMCDB,2.0109897743E-005,4.0988282027E-005,Pass,Pass,1.8193440524E-002,4.2464586488E-002,Pass,Pass
 Warmup Convergence Information,02_A2,SizingPeriod: ANCHORAGEMERRILLFIELDANNHTGWIND99.6CONDNSWSMCDB,2.9292043678E-005,5.7054196972E-005,Pass,Pass,1.8836211723E-002,4.2850197210E-002,Pass,Pass
 Warmup Convergence Information,02_B2,SizingPeriod: ANCHORAGEMERRILLFIELDANNHTGWIND99.6CONDNSWSMCDB,2.2783532604E-003,7.0502445855E-003,Pass,Pass,2.4863476598E-002,6.2640717870E-002,Pass,Pass
 Warmup Convergence Information,02_C1,SizingPeriod: ANCHORAGEMERRILLFIELDANNHTGWIND99.6CONDNSWSMCDB,4.1299692853E-004,2.1440762811E-003,Pass,Pass,2.6478298567E-002,5.9567275826E-002,Pass,Pass
 Warmup Convergence Information,03_A1,SizingPeriod: ANCHORAGEMERRILLFIELDANNHTGWIND99.6CONDNSWSMCDB,1.8018686958E-005,3.9322321711E-005,Pass,Pass,2.0172422357E-002,5.1056180295E-002,Pass,Pass
 Warmup Convergence Information,03_A2,SizingPeriod: ANCHORAGEMERRILLFIELDANNHTGWIND99.6CONDNSWSMCDB,1.8648483391E-005,4.3649883414E-005,Pass,Pass,2.2277856533E-002,5.7873826463E-002,Pass,Pass
 Warmup Convergence Information,03_B2,SizingPeriod: ANCHORAGEMERRILLFIELDANNHTGWIND99.6CONDNSWSMCDB,6.7661126052E-003,1.7076503751E-002,Pass,Pass,2.5772358759E-002,7.3361170064E-002,Pass,Pass
 Warmup Convergence Information,03_C1,SizingPeriod: ANCHORAGEMERRILLFIELDANNHTGWIND99.6CONDNSWSMCDB,4.0327764580E-003,1.1279727044E-002,Pass,Pass,2.7505414984E-002,7.3764670907E-002,Pass,Pass
Environment,ANCHORAGEMERRILLFIELDANNHUM_N99.6CONDNSDPMCDB,SizingPeriod:DesignDay,01/21,01/21,WinterDesignDay,1,N/A,N/A,N/A,N/A,N/A,N/A
Environment:Daylight Saving,No,SizingPeriod:DesignDay
Environment:Design Day Data,-22.30,0.00,DefaultMultipliers,100821,100,0.7,0.00,No,No
Environment:Design Day Misc, 21,1229.0,0.1415,5.7310E-002,1.0,-11.15,-20.1,ASHRAEClearSky
Environment:WarmupDays,  6
 Warmup Convergence Information,01_A1,SizingPeriod: ANCHORAGEMERRILLFIELDANNHUM_N99.6CONDNSDPMCDB,6.6978940234E-002,7.8465511734E-002,Pass,Pass,1.1337638623E-002,4.0226808856E-002,Pass,Pass
 Warmup Convergence Information,01_A2,SizingPeriod: ANCHORAGEMERRILLFIELDANNHUM_N99.6CONDNSDPMCDB,8.8731722880E-002,0.1065622916,Pass,Pass,1.4890128257E-002,3.4783224905E-002,Pass,Pass
 Warmup Convergence Information,01_B2,SizingPeriod: ANCHORAGEMERRILLFIELDANNHUM_N99.6CONDNSDPMCDB,6.4110523687E-002,6.7143343040E-002,Pass,Pass,4.4329546486E-003,8.1767013245E-003,Pass,Pass
 Warmup Convergence Information,01_C1,SizingPeriod: ANCHORAGEMERRILLFIELDANNHUM_N99.6CONDNSDPMCDB,5.7602743361E-002,5.9406781399E-002,Pass,Pass,4.7374754037E-003,8.5333155538E-003,Pass,Pass
 Warmup Convergence Information,02_A1,SizingPeriod: ANCHORAGEMERRILLFIELDANNHUM_N99.6CONDNSDPMCDB,1.4785105804E-002,2.9474975643E-002,Pass,Pass,1.8041359734E-002,4.4948837506E-002,Pass,Pass
 Warmup Convergence Information,02_A2,SizingPeriod: ANCHORAGEMERRILLFIELDANNHUM_N99.6CONDNSDPMCDB,3.6909558916E-002,4.9074472186E-002,Pass,Pass,1.5422746890E-002,4.0993028110E-002,Pass,Pass
 Warmup Convergence Information,02_B2,SizingPeriod: ANCHORAGEMERRILLFIELDANNHUM_N99.6CONDNSDPMCDB,4.1422158571E-002,5.2085181123E-002,Pass,Pass,1.4508010770E-002,4.3011234587E-002,Pass,Pass
 Warmup Convergence Information,02_C1,SizingPeriod: ANCHORAGEMERRILLFIELDANNHUM_N99.6CONDNSDPMCDB,3.3418938746E-002,4.3652506670E-002,Pass,Pass,1.5612415358E-002,4.4749908131E-002,Pass,Pass
 Warmup Convergence Information,03_A1,SizingPeriod: ANCHORAGEMERRILLFIELDANNHUM_N99.6CONDNSDPMCDB,2.8269587876E-002,3.8600647323E-002,Pass,Pass,1.7456165731E-002,5.0127571884E-002,Pass,Pass
 Warmup Convergence Information,03_A2,SizingPeriod: ANCHORAGEMERRILLFIELDANNHUM_N99.6CONDNSDPMCDB,4.1833414048E-002,4.8221713366E-002,Pass,Pass,1.5140085129E-002,5.3096298648E-002,Pass,Pass
 Warmup Convergence Information,03_B2,SizingPeriod: ANCHORAGEMERRILLFIELDANNHUM_N99.6CONDNSDPMCDB,5.7134367317E-002,6.1137974098E-002,Pass,Pass,1.2273581882E-002,2.9370161950E-002,Pass,Pass
 Warmup Convergence Information,03_C1,SizingPeriod: ANCHORAGEMERRILLFIELDANNHUM_N99.6CONDNSDPMCDB,4.7790497272E-002,5.4123962351E-002,Pass,Pass,1.3546975684E-002,3.7784466977E-002,Pass,Pass
Environment,RUN PERIOD 1,WeatherFileRunPeriod,01/01,12/31,Sunday,365,Use RunPeriod Specified Day,No,No,No,Yes,Yes
Environment:Daylight Saving,No,RunPeriod Object
Environment:WarmupDays,  6
 Warmup Convergence Information,01_A1,RunPeriod: RUN PERIOD 1,8.5274477724E-002,0.2400252460,Pass,Pass,3.8973627227E-002,0.1302989385,Pass,Pass
 Warmup Convergence Information,01_A2,RunPeriod: RUN PERIOD 1,0.1083524884,0.4296988094,Pass,Pass,5.8515951684E-002,0.1906654001,Pass,Pass
 Warmup Convergence Information,01_B2,RunPeriod: RUN PERIOD 1,7.9209773616E-002,0.2015383646,Pass,Pass,5.8539410218E-002,0.1566181028,Pass,Pass
 Warmup Convergence Information,01_C1,RunPeriod: RUN PERIOD 1,7.2346797489E-002,0.1911869306,Pass,Pass,4.8097944497E-002,0.1753678468,Pass,Pass
 Warmup Convergence Information,02_A1,RunPeriod: RUN PERIOD 1,6.1569294328E-002,0.2289762146,Pass,Pass,4.3041781045E-002,0.1143384115,Pass,Pass
 Warmup Convergence Information,02_A2,RunPeriod: RUN PERIOD 1,9.5984594726E-002,0.3825854310,Pass,Pass,4.8675799793E-002,0.1206605766,Pass,Pass
 Warmup Convergence Information,02_B2,RunPeriod: RUN PERIOD 1,5.7448518628E-002,0.2023197795,Pass,Pass,0.1242901476,0.3912298660,Pass,Pass
 Warmup Convergence Information,02_C1,RunPeriod: RUN PERIOD 1,4.8506527560E-002,0.1839736007,Pass,Pass,5.0364004094E-002,0.1308762880,Pass,Pass
 Warmup Convergence Information,03_A1,RunPeriod: RUN PERIOD 1,7.6606426543E-002,0.2643065856,Pass,Pass,4.4555361298E-002,0.1307003549,Pass,Pass
 Warmup Convergence Information,03_A2,RunPeriod: RUN PERIOD 1,9.1196022507E-002,0.2746564672,Pass,Pass,5.4020836748E-002,0.1450034592,Pass,Pass
 Warmup Convergence Information,03_B2,RunPeriod: RUN PERIOD 1,7.2078310895E-002,0.2410223135,Pass,Pass,0.1725902480,0.7673571600,Pass,Pass
 Warmup Convergence Information,03_C1,RunPeriod: RUN PERIOD 1,6.4322757022E-002,0.2272446166,Pass,Pass,5.9149067951E-002,0.1769343097,Pass,Pass
! <Program Control Information:Threads/Parallel Sims>, Threading Supported,Maximum Number of Threads, Env Set Threads (OMP_NUM_THREADS), EP Env Set Threads (EP_OMP_NUM_THREADS), IDF Set Threads, Number of Threads Used (Interior Radiant Exchange), Number Nominal Surfaces, Number Parallel Sims
Program Control:Threads/Parallel Sims, No,1, N/A, N/A, N/A, N/A, N/A, N/A
End of Data
