Program Version,EnergyPlus, Version 8.9.0-40101eaafd, YMD=2018.06.04 13:41
! <Version>, Version ID
 Version, 8.9
! <Timesteps per Hour>, #TimeSteps, Minutes per TimeStep {minutes}
 Timesteps per Hour,  6, 10
! <System Convergence Limits>, Minimum System TimeStep {minutes}, Max HVAC Iterations, Minimum Plant Iterations, Maximum Plant Iterations
 System Convergence Limits, 1, 20, 2, 8
! <Simulation Control>, Do Zone Sizing, Do System Sizing, Do Plant Sizing, Do Design Days, Do Weather Simulation, Do HVAC Sizing Simulation
 Simulation Control, Yes, Yes, No, Yes, Yes, No
! <Output Reporting Tolerances>, Tolerance for Time Heating Setpoint Not Met, Tolerance for Zone Cooling Setpoint Not Met Time
 Output Reporting Tolerances, 0.200, 0.200, 
! <Site:GroundTemperature:BuildingSurface>,Jan{C},Feb{C},Mar{C},Apr{C},May{C},Jun{C},Jul{C},Aug{C},Sep{C},Oct{C},Nov{C},Dec{C}
 Site:GroundTemperature:BuildingSurface,  18.00,  18.00,  18.00,  18.00,  18.00,  18.00,  18.00,  18.00,  18.00,  18.00,  18.00,  18.00
! <Site:GroundTemperature:FCfactorMethod>,Jan{C},Feb{C},Mar{C},Apr{C},May{C},Jun{C},Jul{C},Aug{C},Sep{C},Oct{C},Nov{C},Dec{C}
 Site:GroundTemperature:FCfactorMethod,  -3.23,  -4.00,  -2.64,  -0.51,   5.07,   9.38,  12.28,  13.17,  11.66,   8.32,   3.85,  -0.29
! <Site:GroundTemperature:Shallow>,Jan{C},Feb{C},Mar{C},Apr{C},May{C},Jun{C},Jul{C},Aug{C},Sep{C},Oct{C},Nov{C},Dec{C}
 Site:GroundTemperature:Shallow,  13.00,  13.00,  13.00,  13.00,  13.00,  13.00,  13.00,  13.00,  13.00,  13.00,  13.00,  13.00
! <Site:GroundTemperature:Deep>,Jan{C},Feb{C},Mar{C},Apr{C},May{C},Jun{C},Jul{C},Aug{C},Sep{C},Oct{C},Nov{C},Dec{C}
 Site:GroundTemperature:Deep,  16.00,  16.00,  16.00,  16.00,  16.00,  16.00,  16.00,  16.00,  16.00,  16.00,  16.00,  16.00
! <Site:GroundReflectance>,Jan{dimensionless},Feb{dimensionless},Mar{dimensionless},Apr{dimensionless},May{dimensionless},Jun{dimensionless},Jul{dimensionless},Aug{dimensionless},Sep{dimensionless},Oct{dimensionless},Nov{dimensionless},Dec{dimensionless}
 Site:GroundReflectance,  0.20,  0.20,  0.20,  0.20,  0.20,  0.20,  0.20,  0.20,  0.20,  0.20,  0.20,  0.20
! <Site:GroundReflectance:SnowModifier>, Normal, Daylighting {dimensionless}
 Site:GroundReflectance:SnowModifier,   1.000,   1.000
! <Site:GroundReflectance:Snow>,Jan{dimensionless},Feb{dimensionless},Mar{dimensionless},Apr{dimensionless},May{dimensionless},Jun{dimensionless},Jul{dimensionless},Aug{dimensionless},Sep{dimensionless},Oct{dimensionless},Nov{dimensionless},Dec{dimensionless}
 Site:GroundReflectance:Snow,  0.20,  0.20,  0.20,  0.20,  0.20,  0.20,  0.20,  0.20,  0.20,  0.20,  0.20,  0.20
! <Site:GroundReflectance:Snow:Daylighting>,Jan{dimensionless},Feb{dimensionless},Mar{dimensionless},Apr{dimensionless},May{dimensionless},Jun{dimensionless},Jul{dimensionless},Aug{dimensionless},Sep{dimensionless},Oct{dimensionless},Nov{dimensionless},Dec{dimensionless}
 Site:GroundReflectance:Snow:Daylighting,  0.20,  0.20,  0.20,  0.20,  0.20,  0.20,  0.20,  0.20,  0.20,  0.20,  0.20,  0.20
! <Environment:Weather Station>,Wind Sensor Height Above Ground {m},Wind Speed Profile Exponent {},Wind Speed Profile Boundary Layer Thickness {m},Air Temperature Sensor Height Above Ground {m},Wind Speed Modifier Coefficient-Internal,Temperature Modifier Coefficient-Internal
Environment:Weather Station,10.000,0.140,270.000,1.500,1.586,9.750E-003
! <Site:Location>, Location Name, Latitude {N+/S- Deg}, Longitude {E+/W- Deg},  Time Zone Number {GMT+/-}, Elevation {m},  Standard Pressure at Elevation {Pa}, Standard RhoAir at Elevation
Site:Location,Lake Hood Seaplane AK USA TMY3 WMO#=702725,61.18,-149.97,-9.00,22.00,101061,1.2012
! <Building Information>, Building Name,North Axis {deg},Terrain,  Loads Convergence Tolerance Value,Temperature Convergence Tolerance Value,  Solar Distribution,Maximum Number of Warmup Days,Minimum Number of Warmup Days
 Building Information,KA2 A Flatroof Sample Building,0.000,Suburbs,4.00000E-002,0.40000,FullExterior,25,6
! <Inside Convection Algorithm>, Algorithm {Simple | TARP | CeilingDiffuser | AdaptiveConvectionAlgorithm}
Inside Convection Algorithm,TARP
! <Outside Convection Algorithm>, Algorithm {SimpleCombined | TARP | MoWitt | DOE-2 | AdaptiveConvectionAlgorithm}
Outside Convection Algorithm,DOE-2
! <Sky Radiance Distribution>, Value {Anisotropic}
Sky Radiance Distribution,Anisotropic
! <Zone Air Solution Algorithm>, Value {ThirdOrderBackwardDifference | AnalyticalSolution | EulerMethod}
 Zone Air Solution Algorithm, ThirdOrderBackwardDifference
! <Zone Air Carbon Dioxide Balance Simulation>, Simulation {Yes/No}, Carbon Dioxide Concentration
 Zone Air Carbon Dioxide Balance Simulation, No,N/A
! <Zone Air Generic Contaminant Balance Simulation>, Simulation {Yes/No}, Generic Contaminant Concentration
 Zone Air Generic Contaminant Balance Simulation, No,N/A
! <Zone Air Mass Flow Balance Simulation>, Enforce Mass Balance, Adjust Zone Mixing, Adjust Zone Infiltration {AddInfiltration | AdjustInfiltration | None}, Infiltration Zones {MixingSourceZonesOnly | AllZones}
 Zone Air Mass Flow Balance Simulation, No,N/A,N/A,N/A
! <HVACSystemRootFindingAlgorithm>, Value {RegulaFalsi | Bisection | BisectionThenRegulaFalsi | RegulaFalsiThenBisection}
 HVACSystemRootFindingAlgorithm, RegulaFalsi
! <Environment:Site Atmospheric Variation>,Wind Speed Profile Exponent {},Wind Speed Profile Boundary Layer Thickness {m},Air Temperature Gradient Coefficient {K/m}
Environment:Site Atmospheric Variation,0.220,370.000,6.500000E-003
! <Surface Geometry>,Starting Corner,Vertex Input Direction,Coordinate System,Daylight Reference Point Coordinate System,Rectangular (Simple) Surface Coordinate System
 Surface Geometry,UpperLeftCorner,Counterclockwise,RelativeCoordinateSystem,RelativeCoordinateSystem,RelativeToZoneOrigin
! <Surface Heat Transfer Algorithm>, Value {CTF - ConductionTransferFunction | EMPD - MoisturePenetrationDepthConductionTransferFunction | CondFD - ConductionFiniteDifference | HAMT - CombinedHeatAndMoistureFiniteElement} - Description,Inside Surface Max Temperature Limit{C}, Surface Convection Coefficient Lower Limit {W/m2-K}, Surface Convection Coefficient Upper Limit {W/m2-K}
Surface Heat Transfer Algorithm, CTF - ConductionTransferFunction,200,0.10,1000.0
! <Shading Summary>, Number of Fixed Detached Shades, Number of Building Detached Shades, Number of Attached Shades
 Shading Summary,0,0,18
! <Zone Summary>, Number of Zones, Number of Zone Surfaces, Number of SubSurfaces
 Zone Summary,12,174,66
! <Zone Information>,Zone Name,North Axis {deg},Origin X-Coordinate {m},Origin Y-Coordinate {m},Origin Z-Coordinate {m},Centroid X-Coordinate {m},Centroid Y-Coordinate {m},Centroid Z-Coordinate {m},Type,Zone Multiplier,Zone List Multiplier,Minimum X {m},Maximum X {m},Minimum Y {m},Maximum Y {m},Minimum Z {m},Maximum Z {m},Ceiling Height {m},Volume {m3},Zone Inside Convection Algorithm {Simple-Detailed-CeilingDiffuser-TrombeWall},Zone Outside Convection Algorithm {Simple-Detailed-Tarp-MoWitt-DOE-2-BLAST}, Floor Area {m2},Exterior Gross Wall Area {m2},Exterior Net Wall Area {m2},Exterior Window Area {m2}, Number of Surfaces, Number of SubSurfaces, Number of Shading SubSurfaces,  Part of Total Building Area
 Zone Information, 01_A1,0.0,19.48,4.60,0.00,15.54,8.26,1.68,1,1,1,11.61,19.48,4.60,11.91,0.00,3.35,3.35,193.12,CeilingDiffuser,DOE-2,57.60,56.55,48.29,6.31,7,3,2,Yes
 Zone Information, 01_A2,0.0,2.46,8.26,0.00,6.52,8.32,1.68,1,1,1,2.46,11.61,4.60,11.91,0.00,3.35,3.35,208.70,TARP,DOE-2,62.25,85.84,77.06,6.83,8,4,2,Yes
 Zone Information, 01_B2,0.0,2.16,21.21,0.00,6.09,21.12,1.68,1,1,1,2.16,11.61,14.96,25.63,0.00,3.35,3.35,324.46,CeilingDiffuser,DOE-2,96.77,99.13,83.98,13.20,10,7,2,Yes
 Zone Information, 01_C1,0.0,18.92,25.63,1.26E-030,16.14,18.67,1.68,1,1,1,11.61,20.75,11.91,25.63,6.28E-031,3.35,3.35,380.95,CeilingDiffuser,DOE-2,113.62,96.74,80.17,14.63,11,8,2,Yes
 Zone Information, 02_A1,0.0,19.48,4.60,3.35,15.54,8.26,5.03,1,1,1,11.61,19.48,4.60,11.91,3.35,6.71,3.35,193.12,CeilingDiffuser,DOE-2,57.60,56.55,47.80,6.79,7,3,2,Yes
 Zone Information, 02_A2,0.0,2.46,8.26,3.35,6.52,8.32,5.03,1,1,1,2.46,11.61,4.60,11.91,3.35,6.71,3.35,208.70,TARP,DOE-2,62.25,85.84,76.33,7.56,8,4,2,Yes
 Zone Information, 02_B2,0.0,2.16,21.21,3.35,6.09,21.12,5.03,1,1,1,2.16,11.61,14.96,25.63,3.35,6.71,3.35,324.46,CeilingDiffuser,DOE-2,96.77,99.13,81.69,15.49,10,7,2,Yes
 Zone Information, 02_C1,0.0,18.92,25.63,3.35,16.14,18.67,5.03,1,1,1,11.61,20.75,11.91,25.63,3.35,6.71,3.35,380.95,CeilingDiffuser,DOE-2,113.62,96.74,77.21,17.58,11,8,2,Yes
 Zone Information, 03_A1,0.0,19.48,4.60,6.71,15.54,8.26,8.38,1,1,1,11.61,19.48,4.60,11.91,6.71,10.06,3.35,193.12,CeilingDiffuser,DOE-2,57.60,56.55,47.80,6.79,7,3,0,Yes
 Zone Information, 03_A2,0.0,2.46,8.26,6.71,6.52,8.32,8.38,1,1,1,2.46,11.61,4.60,11.91,6.71,10.06,3.35,208.70,CeilingDiffuser,DOE-2,62.25,85.84,76.33,7.56,8,4,0,Yes
 Zone Information, 03_B2,0.0,2.16,21.21,6.71,6.09,21.12,8.38,1,1,1,2.16,11.61,14.96,25.63,6.71,10.06,3.35,324.46,CeilingDiffuser,DOE-2,96.77,99.13,81.69,15.49,10,7,0,Yes
 Zone Information, 03_C1,0.0,18.92,25.63,6.71,16.14,18.67,8.38,1,1,1,11.61,20.75,11.91,25.63,6.71,10.06,3.35,380.95,CeilingDiffuser,DOE-2,113.62,96.74,77.21,17.58,11,8,2,Yes
! <Zone Internal Gains Nominal>,Zone Name, Floor Area {m2},# Occupants,Area per Occupant {m2/person},Occupant per Area {person/m2},Interior Lighting {W/m2},Electric Load {W/m2},Gas Load {W/m2},Other Load {W/m2},Hot Water Eq {W/m2},Steam Equipment {W/m2},Sum Loads per Area {W/m2},Outdoor Controlled Baseboard Heat
 Zone Internal Gains Nominal, 01_A1,57.60,1.6,37.161,2.691E-002,4.127,87.268,0.000,0.000,0.000,0.000,91.395,No
 Zone Internal Gains Nominal, 01_A2,62.25,1.6,40.158,2.490E-002,3.729,80.755,0.000,0.000,0.000,0.000,84.484,No
 Zone Internal Gains Nominal, 01_B2,96.77,2.5,39.180,2.552E-002,3.260,56.045,0.000,0.000,0.000,0.000,59.305,No
 Zone Internal Gains Nominal, 01_C1,113.62,3.4,33.516,2.984E-002,3.085,49.676,0.000,0.000,0.000,0.000,52.761,No
 Zone Internal Gains Nominal, 02_A1,57.60,1.6,37.161,2.691E-002,4.127,87.268,0.000,0.000,0.000,0.000,91.395,No
 Zone Internal Gains Nominal, 02_A2,62.25,1.6,40.158,2.490E-002,3.729,80.755,0.000,0.000,0.000,0.000,84.484,No
 Zone Internal Gains Nominal, 02_B2,96.77,2.5,39.180,2.552E-002,3.260,56.045,0.000,0.000,0.000,0.000,59.305,No
 Zone Internal Gains Nominal, 02_C1,113.62,3.4,33.516,2.984E-002,3.085,49.676,0.000,0.000,0.000,0.000,52.761,No
 Zone Internal Gains Nominal, 03_A1,57.60,1.6,37.161,2.691E-002,4.127,87.268,0.000,0.000,0.000,0.000,91.395,No
 Zone Internal Gains Nominal, 03_A2,62.25,1.6,40.158,2.490E-002,3.729,80.755,0.000,0.000,0.000,0.000,84.484,No
 Zone Internal Gains Nominal, 03_B2,96.77,2.5,39.180,2.552E-002,3.260,56.045,0.000,0.000,0.000,0.000,59.305,No
 Zone Internal Gains Nominal, 03_C1,113.62,3.4,33.516,2.984E-002,3.085,49.676,0.000,0.000,0.000,0.000,52.761,No
! <People Internal Gains Nominal>,Name,Schedule Name,Zone Name,Zone Floor Area {m2},# Zone Occupants,Number of People {},People/Floor Area {person/m2},Floor Area per person {m2/person},Fraction Radiant,Fraction Convected,Sensible Fraction Calculation,Activity level,ASHRAE 55 Warnings,Carbon Dioxide Generation Rate,Nominal Minimum Number of People,Nominal Maximum Number of People
 People Internal Gains Nominal, 01_A1 PEOPLE 1,OCCPROTOCOL,01_A1,57.60,1.6,1.6,2.691E-002,37.161,0.300,0.700,AutoCalculate,MIDRISEAPARTMENT ACTIVITYDOE,No,3.8200E-008,0,2
 People Internal Gains Nominal, 02_A1 PEOPLE 1,OCCPROTOCOL,02_A1,57.60,1.6,1.6,2.691E-002,37.161,0.300,0.700,AutoCalculate,MIDRISEAPARTMENT ACTIVITYDOE,No,3.8200E-008,0,2
 People Internal Gains Nominal, 03_A1 PEOPLE 1,OCCPROTOCOL,03_A1,57.60,1.6,1.6,2.691E-002,37.161,0.300,0.700,AutoCalculate,MIDRISEAPARTMENT ACTIVITYDOE,No,3.8200E-008,0,2
 People Internal Gains Nominal, 01_A2 PEOPLE 2,OCCPROTOCOL,01_A2,62.25,1.6,1.6,2.490E-002,40.158,0.300,0.700,AutoCalculate,MIDRISEAPARTMENT ACTIVITYDOE,No,3.8200E-008,0,2
 People Internal Gains Nominal, 02_A2 PEOPLE 2,OCCPROTOCOL,02_A2,62.25,1.6,1.6,2.490E-002,40.158,0.300,0.700,AutoCalculate,MIDRISEAPARTMENT ACTIVITYDOE,No,3.8200E-008,0,2
 People Internal Gains Nominal, 03_A2 PEOPLE 2,OCCPROTOCOL,03_A2,62.25,1.6,1.6,2.490E-002,40.158,0.300,0.700,AutoCalculate,MIDRISEAPARTMENT ACTIVITYDOE,No,3.8200E-008,0,2
 People Internal Gains Nominal, 01_B2 PEOPLE 6,OCCPROTOCOL,01_B2,96.77,2.5,2.5,2.552E-002,39.180,0.300,0.700,AutoCalculate,MIDRISEAPARTMENT ACTIVITYDOE,No,3.8200E-008,1,2
 People Internal Gains Nominal, 02_B2 PEOPLE 6,OCCPROTOCOL,02_B2,96.77,2.5,2.5,2.552E-002,39.180,0.300,0.700,AutoCalculate,MIDRISEAPARTMENT ACTIVITYDOE,No,3.8200E-008,1,2
 People Internal Gains Nominal, 03_B2 PEOPLE 6,OCCPROTOCOL,03_B2,96.77,2.5,2.5,2.552E-002,39.180,0.300,0.700,AutoCalculate,MIDRISEAPARTMENT ACTIVITYDOE,No,3.8200E-008,1,2
 People Internal Gains Nominal, 01_C1 PEOPLE 7,OCCPROTOCOL,01_C1,113.62,3.4,3.4,2.984E-002,33.516,0.300,0.700,AutoCalculate,MIDRISEAPARTMENT ACTIVITYDOE,No,3.8200E-008,1,3
 People Internal Gains Nominal, 02_C1 PEOPLE 7,OCCPROTOCOL,02_C1,113.62,3.4,3.4,2.984E-002,33.516,0.300,0.700,AutoCalculate,MIDRISEAPARTMENT ACTIVITYDOE,No,3.8200E-008,1,3
 People Internal Gains Nominal, 03_C1 PEOPLE 7,OCCPROTOCOL,03_C1,113.62,3.4,3.4,2.984E-002,33.516,0.300,0.700,AutoCalculate,MIDRISEAPARTMENT ACTIVITYDOE,No,3.8200E-008,1,3
! <Lights Internal Gains Nominal>,Name,Schedule Name,Zone Name,Zone Floor Area {m2},# Zone Occupants,Lighting Level {W},Lights/Floor Area {W/m2},Lights per person {W/person},Fraction Return Air,Fraction Radiant,Fraction Short Wave,Fraction Convected,Fraction Replaceable,End-Use Category,Nominal Minimum Lighting Level {W},Nominal Maximum Lighting Level {W}
 Lights Internal Gains Nominal, 01_A1 LIGHTS 2,MIDRISEAPARTMENT APARTMENT LIGHTDOE,01_A1,57.60,1.6,237.708,4.127,153.360,0.000,0.000,0.000,1.000,1.000,General,4.754,237.708
 Lights Internal Gains Nominal, 02_A1 LIGHTS 2,MIDRISEAPARTMENT APARTMENT LIGHTDOE,02_A1,57.60,1.6,237.708,4.127,153.360,0.000,0.000,0.000,1.000,1.000,General,4.754,237.708
 Lights Internal Gains Nominal, 03_A1 LIGHTS 2,MIDRISEAPARTMENT APARTMENT LIGHTDOE,03_A1,57.60,1.6,237.708,4.127,153.360,0.000,0.000,0.000,1.000,1.000,General,4.754,237.708
 Lights Internal Gains Nominal, 01_A2 LIGHTS 3,MIDRISEAPARTMENT APARTMENT LIGHTDOE,01_A2,62.25,1.6,232.088,3.729,149.734,0.000,0.000,0.000,1.000,1.000,General,4.642,232.088
 Lights Internal Gains Nominal, 02_A2 LIGHTS 3,MIDRISEAPARTMENT APARTMENT LIGHTDOE,02_A2,62.25,1.6,232.088,3.729,149.734,0.000,0.000,0.000,1.000,1.000,General,4.642,232.088
 Lights Internal Gains Nominal, 03_A2 LIGHTS 3,MIDRISEAPARTMENT APARTMENT LIGHTDOE,03_A2,62.25,1.6,232.088,3.729,149.734,0.000,0.000,0.000,1.000,1.000,General,4.642,232.088
 Lights Internal Gains Nominal, 01_B2 LIGHTS 7,MIDRISEAPARTMENT APARTMENT LIGHTDOE,01_B2,96.77,2.5,315.521,3.260,127.741,0.000,0.000,0.000,1.000,1.000,General,6.310,315.521
 Lights Internal Gains Nominal, 02_B2 LIGHTS 7,MIDRISEAPARTMENT APARTMENT LIGHTDOE,02_B2,96.77,2.5,315.521,3.260,127.741,0.000,0.000,0.000,1.000,1.000,General,6.310,315.521
 Lights Internal Gains Nominal, 03_B2 LIGHTS 7,MIDRISEAPARTMENT APARTMENT LIGHTDOE,03_B2,96.77,2.5,315.521,3.260,127.741,0.000,0.000,0.000,1.000,1.000,General,6.310,315.521
 Lights Internal Gains Nominal, 01_C1 LIGHTS 8,MIDRISEAPARTMENT APARTMENT LIGHTDOE,01_C1,113.62,3.4,350.512,3.085,103.396,0.000,0.000,0.000,1.000,1.000,General,7.010,350.512
 Lights Internal Gains Nominal, 02_C1 LIGHTS 8,MIDRISEAPARTMENT APARTMENT LIGHTDOE,02_C1,113.62,3.4,350.512,3.085,103.396,0.000,0.000,0.000,1.000,1.000,General,7.010,350.512
 Lights Internal Gains Nominal, 03_C1 LIGHTS 8,MIDRISEAPARTMENT APARTMENT LIGHTDOE,03_C1,113.62,3.4,350.512,3.085,103.396,0.000,0.000,0.000,1.000,1.000,General,7.010,350.512
! <ElectricEquipment Internal Gains Nominal>,Name,Schedule Name,Zone Name,Zone Floor Area {m2},# Zone Occupants,Equipment Level {W},Equipment/Floor Area {W/m2},Equipment per person {W/person},Fraction Latent,Fraction Radiant,Fraction Lost,Fraction Convected,End-Use SubCategory,Nominal Minimum Equipment Level {W},Nominal Maximum Equipment Level {W}
 ElectricEquipment Internal Gains Nominal, 01_A1 ELECTRIC EQUIPMENT 19,APARTMENTMIDRISE EQP_CLOTHESDRYER,01_A1,57.60,1.6,1699.556,29.506,1096.487,5.000E-002,0.150,0.000,0.800,General,3.399,1699.556
 ElectricEquipment Internal Gains Nominal, 02_A1 ELECTRIC EQUIPMENT 19,APARTMENTMIDRISE EQP_CLOTHESDRYER,02_A1,57.60,1.6,1699.556,29.506,1096.487,5.000E-002,0.150,0.000,0.800,General,3.399,1699.556
 ElectricEquipment Internal Gains Nominal, 03_A1 ELECTRIC EQUIPMENT 19,APARTMENTMIDRISE EQP_CLOTHESDRYER,03_A1,57.60,1.6,1699.556,29.506,1096.487,5.000E-002,0.150,0.000,0.800,General,3.399,1699.556
 ElectricEquipment Internal Gains Nominal, 01_A1 ELECTRIC EQUIPMENT 20,APARTMENTMIDRISE EQP_CLOTHESWASHER,01_A1,57.60,1.6,350.000,6.076,225.806,0.000,0.800,0.000,0.200,General,1.225,350.000
 ElectricEquipment Internal Gains Nominal, 02_A1 ELECTRIC EQUIPMENT 20,APARTMENTMIDRISE EQP_CLOTHESWASHER,02_A1,57.60,1.6,350.000,6.076,225.806,0.000,0.800,0.000,0.200,General,1.225,350.000
 ElectricEquipment Internal Gains Nominal, 03_A1 ELECTRIC EQUIPMENT 20,APARTMENTMIDRISE EQP_CLOTHESWASHER,03_A1,57.60,1.6,350.000,6.076,225.806,0.000,0.800,0.000,0.200,General,1.225,350.000
 ElectricEquipment Internal Gains Nominal, 01_A1 ELECTRIC EQUIPMENT 22,APARTMENTMIDRISE EQP_DISHWASHER,01_A1,57.60,1.6,780.000,13.542,503.226,0.150,0.600,0.000,0.250,General,2.730,780.000
 ElectricEquipment Internal Gains Nominal, 02_A1 ELECTRIC EQUIPMENT 22,APARTMENTMIDRISE EQP_DISHWASHER,02_A1,57.60,1.6,780.000,13.542,503.226,0.150,0.600,0.000,0.250,General,2.730,780.000
 ElectricEquipment Internal Gains Nominal, 03_A1 ELECTRIC EQUIPMENT 22,APARTMENTMIDRISE EQP_DISHWASHER,03_A1,57.60,1.6,780.000,13.542,503.226,0.150,0.600,0.000,0.250,General,2.730,780.000
 ElectricEquipment Internal Gains Nominal, 01_A1 ELECTRIC EQUIPMENT 23,APARTMENTMIDRISE EQP_RANGE,01_A1,57.60,1.6,250.000,4.340,161.290,0.200,0.730,0.000,7.000E-002,General,0.800,250.000
 ElectricEquipment Internal Gains Nominal, 02_A1 ELECTRIC EQUIPMENT 23,APARTMENTMIDRISE EQP_RANGE,02_A1,57.60,1.6,250.000,4.340,161.290,0.200,0.730,0.000,7.000E-002,General,0.800,250.000
 ElectricEquipment Internal Gains Nominal, 03_A1 ELECTRIC EQUIPMENT 23,APARTMENTMIDRISE EQP_RANGE,03_A1,57.60,1.6,250.000,4.340,161.290,0.200,0.730,0.000,7.000E-002,General,0.800,250.000
 ElectricEquipment Internal Gains Nominal, 01_A1 ELECTRIC EQUIPMENT 24,APARTMENTMIDRISE EQP_RANGE,01_A1,57.60,1.6,176.471,3.064,113.852,0.300,0.400,0.000,0.300,General,0.565,176.471
 ElectricEquipment Internal Gains Nominal, 02_A1 ELECTRIC EQUIPMENT 24,APARTMENTMIDRISE EQP_RANGE,02_A1,57.60,1.6,176.471,3.064,113.852,0.300,0.400,0.000,0.300,General,0.565,176.471
 ElectricEquipment Internal Gains Nominal, 03_A1 ELECTRIC EQUIPMENT 24,APARTMENTMIDRISE EQP_RANGE,03_A1,57.60,1.6,176.471,3.064,113.852,0.300,0.400,0.000,0.300,General,0.565,176.471
 ElectricEquipment Internal Gains Nominal, 01_A1 ELECTRIC EQUIPMENT 25,APARTMENTMIDRISE EQP_REFRIGERATOR,01_A1,57.60,1.6,1200.000,20.833,774.194,0.000,1.000,0.000,0.000,General,43.476,1200.000
 ElectricEquipment Internal Gains Nominal, 02_A1 ELECTRIC EQUIPMENT 25,APARTMENTMIDRISE EQP_REFRIGERATOR,02_A1,57.60,1.6,1200.000,20.833,774.194,0.000,1.000,0.000,0.000,General,43.476,1200.000
 ElectricEquipment Internal Gains Nominal, 03_A1 ELECTRIC EQUIPMENT 25,APARTMENTMIDRISE EQP_REFRIGERATOR,03_A1,57.60,1.6,1200.000,20.833,774.194,0.000,1.000,0.000,0.000,General,43.476,1200.000
 ElectricEquipment Internal Gains Nominal, 01_A1 ELECTRIC EQUIPMENT 26,APARTMENTMIDRISE EQP_APT_SCH,01_A1,57.60,1.6,350.000,6.076,225.806,0.200,0.730,0.000,7.000E-002,General,8.540,350.000
 ElectricEquipment Internal Gains Nominal, 02_A1 ELECTRIC EQUIPMENT 26,APARTMENTMIDRISE EQP_APT_SCH,02_A1,57.60,1.6,350.000,6.076,225.806,0.200,0.730,0.000,7.000E-002,General,8.540,350.000
 ElectricEquipment Internal Gains Nominal, 03_A1 ELECTRIC EQUIPMENT 26,APARTMENTMIDRISE EQP_APT_SCH,03_A1,57.60,1.6,350.000,6.076,225.806,0.200,0.730,0.000,7.000E-002,General,8.540,350.000
 ElectricEquipment Internal Gains Nominal, 01_A1 ELECTRIC EQUIPMENT 3,APARTMENTMIDRISE EQP_RANGE,01_A1,57.60,1.6,220.588,3.830,142.315,0.300,0.400,0.000,0.300,General,0.706,220.588
 ElectricEquipment Internal Gains Nominal, 02_A1 ELECTRIC EQUIPMENT 3,APARTMENTMIDRISE EQP_RANGE,02_A1,57.60,1.6,220.588,3.830,142.315,0.300,0.400,0.000,0.300,General,0.706,220.588
 ElectricEquipment Internal Gains Nominal, 03_A1 ELECTRIC EQUIPMENT 3,APARTMENTMIDRISE EQP_RANGE,03_A1,57.60,1.6,220.588,3.830,142.315,0.300,0.400,0.000,0.300,General,0.706,220.588
 ElectricEquipment Internal Gains Nominal, 01_A2 ELECTRIC EQUIPMENT 13,APARTMENTMIDRISE EQP_RANGE,01_A2,62.25,1.6,176.471,2.835,113.852,0.300,0.400,0.000,0.300,General,0.565,176.471
 ElectricEquipment Internal Gains Nominal, 02_A2 ELECTRIC EQUIPMENT 13,APARTMENTMIDRISE EQP_RANGE,02_A2,62.25,1.6,176.471,2.835,113.852,0.300,0.400,0.000,0.300,General,0.565,176.471
 ElectricEquipment Internal Gains Nominal, 03_A2 ELECTRIC EQUIPMENT 13,APARTMENTMIDRISE EQP_RANGE,03_A2,62.25,1.6,176.471,2.835,113.852,0.300,0.400,0.000,0.300,General,0.565,176.471
 ElectricEquipment Internal Gains Nominal, 01_A2 ELECTRIC EQUIPMENT 27,APARTMENTMIDRISE EQP_CLOTHESDRYER,01_A2,62.25,1.6,1699.556,27.304,1096.487,5.000E-002,0.150,0.000,0.800,General,3.399,1699.556
 ElectricEquipment Internal Gains Nominal, 02_A2 ELECTRIC EQUIPMENT 27,APARTMENTMIDRISE EQP_CLOTHESDRYER,02_A2,62.25,1.6,1699.556,27.304,1096.487,5.000E-002,0.150,0.000,0.800,General,3.399,1699.556
 ElectricEquipment Internal Gains Nominal, 03_A2 ELECTRIC EQUIPMENT 27,APARTMENTMIDRISE EQP_CLOTHESDRYER,03_A2,62.25,1.6,1699.556,27.304,1096.487,5.000E-002,0.150,0.000,0.800,General,3.399,1699.556
 ElectricEquipment Internal Gains Nominal, 01_A2 ELECTRIC EQUIPMENT 28,APARTMENTMIDRISE EQP_CLOTHESWASHER,01_A2,62.25,1.6,350.000,5.623,225.806,0.000,0.800,0.000,0.200,General,1.225,350.000
 ElectricEquipment Internal Gains Nominal, 02_A2 ELECTRIC EQUIPMENT 28,APARTMENTMIDRISE EQP_CLOTHESWASHER,02_A2,62.25,1.6,350.000,5.623,225.806,0.000,0.800,0.000,0.200,General,1.225,350.000
 ElectricEquipment Internal Gains Nominal, 03_A2 ELECTRIC EQUIPMENT 28,APARTMENTMIDRISE EQP_CLOTHESWASHER,03_A2,62.25,1.6,350.000,5.623,225.806,0.000,0.800,0.000,0.200,General,1.225,350.000
 ElectricEquipment Internal Gains Nominal, 01_A2 ELECTRIC EQUIPMENT 30,APARTMENTMIDRISE EQP_DISHWASHER,01_A2,62.25,1.6,780.000,12.531,503.226,0.150,0.600,0.000,0.250,General,2.730,780.000
 ElectricEquipment Internal Gains Nominal, 02_A2 ELECTRIC EQUIPMENT 30,APARTMENTMIDRISE EQP_DISHWASHER,02_A2,62.25,1.6,780.000,12.531,503.226,0.150,0.600,0.000,0.250,General,2.730,780.000
 ElectricEquipment Internal Gains Nominal, 03_A2 ELECTRIC EQUIPMENT 30,APARTMENTMIDRISE EQP_DISHWASHER,03_A2,62.25,1.6,780.000,12.531,503.226,0.150,0.600,0.000,0.250,General,2.730,780.000
 ElectricEquipment Internal Gains Nominal, 01_A2 ELECTRIC EQUIPMENT 31,APARTMENTMIDRISE EQP_RANGE,01_A2,62.25,1.6,250.000,4.016,161.290,0.200,0.730,0.000,7.000E-002,General,0.800,250.000
 ElectricEquipment Internal Gains Nominal, 02_A2 ELECTRIC EQUIPMENT 31,APARTMENTMIDRISE EQP_RANGE,02_A2,62.25,1.6,250.000,4.016,161.290,0.200,0.730,0.000,7.000E-002,General,0.800,250.000
 ElectricEquipment Internal Gains Nominal, 03_A2 ELECTRIC EQUIPMENT 31,APARTMENTMIDRISE EQP_RANGE,03_A2,62.25,1.6,250.000,4.016,161.290,0.200,0.730,0.000,7.000E-002,General,0.800,250.000
 ElectricEquipment Internal Gains Nominal, 01_A2 ELECTRIC EQUIPMENT 32,APARTMENTMIDRISE EQP_RANGE,01_A2,62.25,1.6,220.588,3.544,142.315,0.300,0.400,0.000,0.300,General,0.706,220.588
 ElectricEquipment Internal Gains Nominal, 02_A2 ELECTRIC EQUIPMENT 32,APARTMENTMIDRISE EQP_RANGE,02_A2,62.25,1.6,220.588,3.544,142.315,0.300,0.400,0.000,0.300,General,0.706,220.588
 ElectricEquipment Internal Gains Nominal, 03_A2 ELECTRIC EQUIPMENT 32,APARTMENTMIDRISE EQP_RANGE,03_A2,62.25,1.6,220.588,3.544,142.315,0.300,0.400,0.000,0.300,General,0.706,220.588
 ElectricEquipment Internal Gains Nominal, 01_A2 ELECTRIC EQUIPMENT 33,APARTMENTMIDRISE EQP_REFRIGERATOR,01_A2,62.25,1.6,1200.000,19.279,774.194,0.000,1.000,0.000,0.000,General,43.476,1200.000
 ElectricEquipment Internal Gains Nominal, 02_A2 ELECTRIC EQUIPMENT 33,APARTMENTMIDRISE EQP_REFRIGERATOR,02_A2,62.25,1.6,1200.000,19.279,774.194,0.000,1.000,0.000,0.000,General,43.476,1200.000
 ElectricEquipment Internal Gains Nominal, 03_A2 ELECTRIC EQUIPMENT 33,APARTMENTMIDRISE EQP_REFRIGERATOR,03_A2,62.25,1.6,1200.000,19.279,774.194,0.000,1.000,0.000,0.000,General,43.476,1200.000
 ElectricEquipment Internal Gains Nominal, 01_A2 ELECTRIC EQUIPMENT 34,APARTMENTMIDRISE EQP_APT_SCH,01_A2,62.25,1.6,350.000,5.623,225.806,0.200,0.730,0.000,7.000E-002,General,8.540,350.000
 ElectricEquipment Internal Gains Nominal, 02_A2 ELECTRIC EQUIPMENT 34,APARTMENTMIDRISE EQP_APT_SCH,02_A2,62.25,1.6,350.000,5.623,225.806,0.200,0.730,0.000,7.000E-002,General,8.540,350.000
 ElectricEquipment Internal Gains Nominal, 03_A2 ELECTRIC EQUIPMENT 34,APARTMENTMIDRISE EQP_APT_SCH,03_A2,62.25,1.6,350.000,5.623,225.806,0.200,0.730,0.000,7.000E-002,General,8.540,350.000
 ElectricEquipment Internal Gains Nominal, 01_B2 ELECTRIC EQUIPMENT 45,APARTMENTMIDRISE EQP_RANGE,01_B2,96.77,2.5,397.059,4.103,160.753,0.300,0.400,0.000,0.300,General,1.271,397.059
 ElectricEquipment Internal Gains Nominal, 02_B2 ELECTRIC EQUIPMENT 45,APARTMENTMIDRISE EQP_RANGE,02_B2,96.77,2.5,397.059,4.103,160.753,0.300,0.400,0.000,0.300,General,1.271,397.059
 ElectricEquipment Internal Gains Nominal, 03_B2 ELECTRIC EQUIPMENT 45,APARTMENTMIDRISE EQP_RANGE,03_B2,96.77,2.5,397.059,4.103,160.753,0.300,0.400,0.000,0.300,General,1.271,397.059
 ElectricEquipment Internal Gains Nominal, 01_B2 ELECTRIC EQUIPMENT 60,APARTMENTMIDRISE EQP_CLOTHESDRYER,01_B2,96.77,2.5,1699.556,17.562,688.079,5.000E-002,0.150,0.000,0.800,General,3.399,1699.556
 ElectricEquipment Internal Gains Nominal, 02_B2 ELECTRIC EQUIPMENT 60,APARTMENTMIDRISE EQP_CLOTHESDRYER,02_B2,96.77,2.5,1699.556,17.562,688.079,5.000E-002,0.150,0.000,0.800,General,3.399,1699.556
 ElectricEquipment Internal Gains Nominal, 03_B2 ELECTRIC EQUIPMENT 60,APARTMENTMIDRISE EQP_CLOTHESDRYER,03_B2,96.77,2.5,1699.556,17.562,688.079,5.000E-002,0.150,0.000,0.800,General,3.399,1699.556
 ElectricEquipment Internal Gains Nominal, 01_B2 ELECTRIC EQUIPMENT 61,APARTMENTMIDRISE EQP_CLOTHESWASHER,01_B2,96.77,2.5,350.000,3.617,141.700,0.000,0.800,0.000,0.200,General,1.225,350.000
 ElectricEquipment Internal Gains Nominal, 02_B2 ELECTRIC EQUIPMENT 61,APARTMENTMIDRISE EQP_CLOTHESWASHER,02_B2,96.77,2.5,350.000,3.617,141.700,0.000,0.800,0.000,0.200,General,1.225,350.000
 ElectricEquipment Internal Gains Nominal, 03_B2 ELECTRIC EQUIPMENT 61,APARTMENTMIDRISE EQP_CLOTHESWASHER,03_B2,96.77,2.5,350.000,3.617,141.700,0.000,0.800,0.000,0.200,General,1.225,350.000
 ElectricEquipment Internal Gains Nominal, 01_B2 ELECTRIC EQUIPMENT 63,APARTMENTMIDRISE EQP_DISHWASHER,01_B2,96.77,2.5,780.000,8.060,315.789,0.150,0.600,0.000,0.250,General,2.730,780.000
 ElectricEquipment Internal Gains Nominal, 02_B2 ELECTRIC EQUIPMENT 63,APARTMENTMIDRISE EQP_DISHWASHER,02_B2,96.77,2.5,780.000,8.060,315.789,0.150,0.600,0.000,0.250,General,2.730,780.000
 ElectricEquipment Internal Gains Nominal, 03_B2 ELECTRIC EQUIPMENT 63,APARTMENTMIDRISE EQP_DISHWASHER,03_B2,96.77,2.5,780.000,8.060,315.789,0.150,0.600,0.000,0.250,General,2.730,780.000
 ElectricEquipment Internal Gains Nominal, 01_B2 ELECTRIC EQUIPMENT 64,APARTMENTMIDRISE EQP_RANGE,01_B2,96.77,2.5,250.000,2.583,101.215,0.200,0.730,0.000,7.000E-002,General,0.800,250.000
 ElectricEquipment Internal Gains Nominal, 02_B2 ELECTRIC EQUIPMENT 64,APARTMENTMIDRISE EQP_RANGE,02_B2,96.77,2.5,250.000,2.583,101.215,0.200,0.730,0.000,7.000E-002,General,0.800,250.000
 ElectricEquipment Internal Gains Nominal, 03_B2 ELECTRIC EQUIPMENT 64,APARTMENTMIDRISE EQP_RANGE,03_B2,96.77,2.5,250.000,2.583,101.215,0.200,0.730,0.000,7.000E-002,General,0.800,250.000
 ElectricEquipment Internal Gains Nominal, 01_B2 ELECTRIC EQUIPMENT 65,APARTMENTMIDRISE EQP_RANGE,01_B2,96.77,2.5,220.588,2.279,89.307,0.300,0.400,0.000,0.300,General,0.706,220.588
 ElectricEquipment Internal Gains Nominal, 02_B2 ELECTRIC EQUIPMENT 65,APARTMENTMIDRISE EQP_RANGE,02_B2,96.77,2.5,220.588,2.279,89.307,0.300,0.400,0.000,0.300,General,0.706,220.588
 ElectricEquipment Internal Gains Nominal, 03_B2 ELECTRIC EQUIPMENT 65,APARTMENTMIDRISE EQP_RANGE,03_B2,96.77,2.5,220.588,2.279,89.307,0.300,0.400,0.000,0.300,General,0.706,220.588
 ElectricEquipment Internal Gains Nominal, 01_B2 ELECTRIC EQUIPMENT 66,APARTMENTMIDRISE EQP_RANGE,01_B2,96.77,2.5,176.471,1.824,71.446,0.300,0.400,0.000,0.300,General,0.565,176.471
 ElectricEquipment Internal Gains Nominal, 02_B2 ELECTRIC EQUIPMENT 66,APARTMENTMIDRISE EQP_RANGE,02_B2,96.77,2.5,176.471,1.824,71.446,0.300,0.400,0.000,0.300,General,0.565,176.471
 ElectricEquipment Internal Gains Nominal, 03_B2 ELECTRIC EQUIPMENT 66,APARTMENTMIDRISE EQP_RANGE,03_B2,96.77,2.5,176.471,1.824,71.446,0.300,0.400,0.000,0.300,General,0.565,176.471
 ElectricEquipment Internal Gains Nominal, 01_B2 ELECTRIC EQUIPMENT 67,APARTMENTMIDRISE EQP_REFRIGERATOR,01_B2,96.77,2.5,1200.000,12.400,485.830,0.000,1.000,0.000,0.000,General,43.476,1200.000
 ElectricEquipment Internal Gains Nominal, 02_B2 ELECTRIC EQUIPMENT 67,APARTMENTMIDRISE EQP_REFRIGERATOR,02_B2,96.77,2.5,1200.000,12.400,485.830,0.000,1.000,0.000,0.000,General,43.476,1200.000
 ElectricEquipment Internal Gains Nominal, 03_B2 ELECTRIC EQUIPMENT 67,APARTMENTMIDRISE EQP_REFRIGERATOR,03_B2,96.77,2.5,1200.000,12.400,485.830,0.000,1.000,0.000,0.000,General,43.476,1200.000
 ElectricEquipment Internal Gains Nominal, 01_B2 ELECTRIC EQUIPMENT 68,APARTMENTMIDRISE EQP_APT_SCH,01_B2,96.77,2.5,350.000,3.617,141.700,0.200,0.730,0.000,7.000E-002,General,8.540,350.000
 ElectricEquipment Internal Gains Nominal, 02_B2 ELECTRIC EQUIPMENT 68,APARTMENTMIDRISE EQP_APT_SCH,02_B2,96.77,2.5,350.000,3.617,141.700,0.200,0.730,0.000,7.000E-002,General,8.540,350.000
 ElectricEquipment Internal Gains Nominal, 03_B2 ELECTRIC EQUIPMENT 68,APARTMENTMIDRISE EQP_APT_SCH,03_B2,96.77,2.5,350.000,3.617,141.700,0.200,0.730,0.000,7.000E-002,General,8.540,350.000
 ElectricEquipment Internal Gains Nominal, 01_C1 ELECTRIC EQUIPMENT 1,APARTMENTMIDRISE EQP_CLOTHESDRYER,01_C1,113.62,3.4,1699.556,14.958,501.344,5.000E-002,0.150,0.000,0.800,General,3.399,1699.556
 ElectricEquipment Internal Gains Nominal, 02_C1 ELECTRIC EQUIPMENT 1,APARTMENTMIDRISE EQP_CLOTHESDRYER,02_C1,113.62,3.4,1699.556,14.958,501.344,5.000E-002,0.150,0.000,0.800,General,3.399,1699.556
 ElectricEquipment Internal Gains Nominal, 03_C1 ELECTRIC EQUIPMENT 1,APARTMENTMIDRISE EQP_CLOTHESDRYER,03_C1,113.62,3.4,1699.556,14.958,501.344,5.000E-002,0.150,0.000,0.800,General,3.399,1699.556
 ElectricEquipment Internal Gains Nominal, 01_C1 ELECTRIC EQUIPMENT 10,APARTMENTMIDRISE EQP_RANGE,01_C1,113.62,3.4,397.059,3.495,117.126,0.300,0.400,0.000,0.300,General,1.271,397.059
 ElectricEquipment Internal Gains Nominal, 02_C1 ELECTRIC EQUIPMENT 10,APARTMENTMIDRISE EQP_RANGE,02_C1,113.62,3.4,397.059,3.495,117.126,0.300,0.400,0.000,0.300,General,1.271,397.059
 ElectricEquipment Internal Gains Nominal, 03_C1 ELECTRIC EQUIPMENT 10,APARTMENTMIDRISE EQP_RANGE,03_C1,113.62,3.4,397.059,3.495,117.126,0.300,0.400,0.000,0.300,General,1.271,397.059
 ElectricEquipment Internal Gains Nominal, 01_C1 ELECTRIC EQUIPMENT 2,APARTMENTMIDRISE EQP_CLOTHESWASHER,01_C1,113.62,3.4,350.000,3.080,103.245,0.000,0.800,0.000,0.200,General,1.225,350.000
 ElectricEquipment Internal Gains Nominal, 02_C1 ELECTRIC EQUIPMENT 2,APARTMENTMIDRISE EQP_CLOTHESWASHER,02_C1,113.62,3.4,350.000,3.080,103.245,0.000,0.800,0.000,0.200,General,1.225,350.000
 ElectricEquipment Internal Gains Nominal, 03_C1 ELECTRIC EQUIPMENT 2,APARTMENTMIDRISE EQP_CLOTHESWASHER,03_C1,113.62,3.4,350.000,3.080,103.245,0.000,0.800,0.000,0.200,General,1.225,350.000
 ElectricEquipment Internal Gains Nominal, 01_C1 ELECTRIC EQUIPMENT 4,APARTMENTMIDRISE EQP_DISHWASHER,01_C1,113.62,3.4,780.000,6.865,230.088,0.150,0.600,0.000,0.250,General,2.730,780.000
 ElectricEquipment Internal Gains Nominal, 02_C1 ELECTRIC EQUIPMENT 4,APARTMENTMIDRISE EQP_DISHWASHER,02_C1,113.62,3.4,780.000,6.865,230.088,0.150,0.600,0.000,0.250,General,2.730,780.000
 ElectricEquipment Internal Gains Nominal, 03_C1 ELECTRIC EQUIPMENT 4,APARTMENTMIDRISE EQP_DISHWASHER,03_C1,113.62,3.4,780.000,6.865,230.088,0.150,0.600,0.000,0.250,General,2.730,780.000
 ElectricEquipment Internal Gains Nominal, 01_C1 ELECTRIC EQUIPMENT 5,APARTMENTMIDRISE EQP_RANGE,01_C1,113.62,3.4,220.588,1.941,65.070,0.300,0.400,0.000,0.300,General,0.706,220.588
 ElectricEquipment Internal Gains Nominal, 02_C1 ELECTRIC EQUIPMENT 5,APARTMENTMIDRISE EQP_RANGE,02_C1,113.62,3.4,220.588,1.941,65.070,0.300,0.400,0.000,0.300,General,0.706,220.588
 ElectricEquipment Internal Gains Nominal, 03_C1 ELECTRIC EQUIPMENT 5,APARTMENTMIDRISE EQP_RANGE,03_C1,113.62,3.4,220.588,1.941,65.070,0.300,0.400,0.000,0.300,General,0.706,220.588
 ElectricEquipment Internal Gains Nominal, 01_C1 ELECTRIC EQUIPMENT 53,APARTMENTMIDRISE EQP_RANGE,01_C1,113.62,3.4,220.588,1.941,65.070,0.300,0.400,0.000,0.300,General,0.706,220.588
 ElectricEquipment Internal Gains Nominal, 02_C1 ELECTRIC EQUIPMENT 53,APARTMENTMIDRISE EQP_RANGE,02_C1,113.62,3.4,220.588,1.941,65.070,0.300,0.400,0.000,0.300,General,0.706,220.588
 ElectricEquipment Internal Gains Nominal, 03_C1 ELECTRIC EQUIPMENT 53,APARTMENTMIDRISE EQP_RANGE,03_C1,113.62,3.4,220.588,1.941,65.070,0.300,0.400,0.000,0.300,General,0.706,220.588
 ElectricEquipment Internal Gains Nominal, 01_C1 ELECTRIC EQUIPMENT 6,APARTMENTMIDRISE EQP_RANGE,01_C1,113.62,3.4,250.000,2.200,73.746,0.200,0.730,0.000,7.000E-002,General,0.800,250.000
 ElectricEquipment Internal Gains Nominal, 02_C1 ELECTRIC EQUIPMENT 6,APARTMENTMIDRISE EQP_RANGE,02_C1,113.62,3.4,250.000,2.200,73.746,0.200,0.730,0.000,7.000E-002,General,0.800,250.000
 ElectricEquipment Internal Gains Nominal, 03_C1 ELECTRIC EQUIPMENT 6,APARTMENTMIDRISE EQP_RANGE,03_C1,113.62,3.4,250.000,2.200,73.746,0.200,0.730,0.000,7.000E-002,General,0.800,250.000
 ElectricEquipment Internal Gains Nominal, 01_C1 ELECTRIC EQUIPMENT 7,APARTMENTMIDRISE EQP_RANGE,01_C1,113.62,3.4,176.471,1.553,52.056,0.300,0.400,0.000,0.300,General,0.565,176.471
 ElectricEquipment Internal Gains Nominal, 02_C1 ELECTRIC EQUIPMENT 7,APARTMENTMIDRISE EQP_RANGE,02_C1,113.62,3.4,176.471,1.553,52.056,0.300,0.400,0.000,0.300,General,0.565,176.471
 ElectricEquipment Internal Gains Nominal, 03_C1 ELECTRIC EQUIPMENT 7,APARTMENTMIDRISE EQP_RANGE,03_C1,113.62,3.4,176.471,1.553,52.056,0.300,0.400,0.000,0.300,General,0.565,176.471
 ElectricEquipment Internal Gains Nominal, 01_C1 ELECTRIC EQUIPMENT 8,APARTMENTMIDRISE EQP_REFRIGERATOR,01_C1,113.62,3.4,1200.000,10.561,353.982,0.000,1.000,0.000,0.000,General,43.476,1200.000
 ElectricEquipment Internal Gains Nominal, 02_C1 ELECTRIC EQUIPMENT 8,APARTMENTMIDRISE EQP_REFRIGERATOR,02_C1,113.62,3.4,1200.000,10.561,353.982,0.000,1.000,0.000,0.000,General,43.476,1200.000
 ElectricEquipment Internal Gains Nominal, 03_C1 ELECTRIC EQUIPMENT 8,APARTMENTMIDRISE EQP_REFRIGERATOR,03_C1,113.62,3.4,1200.000,10.561,353.982,0.000,1.000,0.000,0.000,General,43.476,1200.000
 ElectricEquipment Internal Gains Nominal, 01_C1 ELECTRIC EQUIPMENT 9,APARTMENTMIDRISE EQP_APT_SCH,01_C1,113.62,3.4,350.000,3.080,103.245,0.200,0.730,0.000,7.000E-002,General,8.540,350.000
 ElectricEquipment Internal Gains Nominal, 02_C1 ELECTRIC EQUIPMENT 9,APARTMENTMIDRISE EQP_APT_SCH,02_C1,113.62,3.4,350.000,3.080,103.245,0.200,0.730,0.000,7.000E-002,General,8.540,350.000
 ElectricEquipment Internal Gains Nominal, 03_C1 ELECTRIC EQUIPMENT 9,APARTMENTMIDRISE EQP_APT_SCH,03_C1,113.62,3.4,350.000,3.080,103.245,0.200,0.730,0.000,7.000E-002,General,8.540,350.000
! <Shadowing/Sun Position Calculations Annual Simulations>, Calculation Method, Value {days}, Allowable Number Figures in Shadow Overlap {}, Polygon Clipping Algorithm, Sky Diffuse Modeling Algorithm, External Shading Calculation Method, Output External Shading Calculation Results, Disable Self-Shading Within Shading Zone Groups, Disable Self-Shading From Shading Zone Groups to Other Zones
Shadowing/Sun Position Calculations Annual Simulations,AverageOverDaysInFrequency,20,15000,SutherlandHodgman,SimpleSkyDiffuseModeling,InternalCalculation,No,No,No
! <RoomAir Model>, Zone Name, Mixing/Mundt/UCSDDV/UCSDCV/UCSDUFI/UCSDUFE/User Defined
RoomAir Model,01_A1,Mixing/Well-Stirred
RoomAir Model,01_A2,Mixing/Well-Stirred
RoomAir Model,01_B2,Mixing/Well-Stirred
RoomAir Model,01_C1,Mixing/Well-Stirred
RoomAir Model,02_A1,Mixing/Well-Stirred
RoomAir Model,02_A2,Mixing/Well-Stirred
RoomAir Model,02_B2,Mixing/Well-Stirred
RoomAir Model,02_C1,Mixing/Well-Stirred
RoomAir Model,03_A1,Mixing/Well-Stirred
RoomAir Model,03_A2,Mixing/Well-Stirred
RoomAir Model,03_B2,Mixing/Well-Stirred
RoomAir Model,03_C1,Mixing/Well-Stirred
! <AirflowNetwork Model:Control>, No Multizone or Distribution/Multizone with Distribution/Multizone without Distribution/Multizone with Distribution only during Fan Operation
AirflowNetwork Model:Control,NoMultizoneOrDistribution
! <Zone Volume Capacitance Multiplier>, Sensible Heat Capacity Multiplier, Moisture Capacity Multiplier, Carbon Dioxide Capacity Multiplier, Generic Contaminant Capacity Multiplier
Zone Volume Capacitance Multiplier,   1.000 ,   1.000,   1.000,   1.000
! <Zone Sizing DOAS Inputs>, Zone Name, DOAS Design Control Strategy, DOAS Design Low Setpoint Temperature {C}, DOAS Design High Setpoint Temperature {C} 
 Zone Sizing DOAS Inputs, 01_A1, NeutralSupplyAir, 21.100, 23.900
! <Load Timesteps in Zone Design Calculation Averaging Window>, Value
 Load Timesteps in Zone Design Calculation Averaging Window,    6
! <Heating Sizing Factor Information>, Sizing Factor ID, Value
 Heating Sizing Factor Information, Global,   1.2500    
 Heating Sizing Factor Information, Zone 01_A1,   1.2500    
 Heating Sizing Factor Information, Zone 01_A2,   1.2500    
 Heating Sizing Factor Information, Zone 01_B2,   1.2500    
 Heating Sizing Factor Information, Zone 01_C1,   1.2500    
 Heating Sizing Factor Information, Zone 02_A1,   1.2500    
 Heating Sizing Factor Information, Zone 02_A2,   1.2500    
 Heating Sizing Factor Information, Zone 02_B2,   1.2500    
 Heating Sizing Factor Information, Zone 02_C1,   1.2500    
 Heating Sizing Factor Information, Zone 03_A1,   1.2500    
 Heating Sizing Factor Information, Zone 03_A2,   1.2500    
 Heating Sizing Factor Information, Zone 03_B2,   1.2500    
 Heating Sizing Factor Information, Zone 03_C1,   1.2500    
! <Cooling Sizing Factor Information>, Sizing Factor ID, Value
 Cooling Sizing Factor Information, Global,   1.1500    
 Cooling Sizing Factor Information, Zone 01_A1,   1.1500    
 Cooling Sizing Factor Information, Zone 01_A2,   1.1500    
 Cooling Sizing Factor Information, Zone 01_B2,   1.1500    
 Cooling Sizing Factor Information, Zone 01_C1,   1.1500    
 Cooling Sizing Factor Information, Zone 02_A1,   1.1500    
 Cooling Sizing Factor Information, Zone 02_A2,   1.1500    
 Cooling Sizing Factor Information, Zone 02_B2,   1.1500    
 Cooling Sizing Factor Information, Zone 02_C1,   1.1500    
 Cooling Sizing Factor Information, Zone 03_A1,   1.1500    
 Cooling Sizing Factor Information, Zone 03_A2,   1.1500    
 Cooling Sizing Factor Information, Zone 03_B2,   1.1500    
 Cooling Sizing Factor Information, Zone 03_C1,   1.1500    
! <Zone Sizing Information>, Zone Name, Load Type, Calc Des Load {W}, User Des Load {W}, Calc Des Air Flow Rate {m3/s}, User Des Air Flow Rate {m3/s}, Design Day Name, Date/Time of Peak, Temperature at Peak {C}, Humidity Ratio at Peak {kgWater/kgDryAir}, Floor Area {m2}, # Occupants, Calc Outdoor Air Flow Rate {m3/s}, Calc DOAS Heat Addition Rate {W}
 Zone Sizing Information, 01_A1, Cooling, 2908.93878, 3345.27960, 0.17071, 0.19632, LAKEHOODSEAPLANEANNCLG.4CONDNSDBMWB, 7/21 19:00:00, 20.94800, 7.58637E-003, 57.59988, 1.55000, 2.35974E-002, -60.13734
 Zone Sizing Information, 01_A1, Heating, 26.22550, 32.78187, 1.92883E-003, 2.35974E-002, LAKEHOODSEAPLANEANNHTG99.6CONDNSDB, 1/21 02:00:00, -22.60000, 4.94287E-004, 57.59988, 1.55000, 2.35974E-002, -66.43854
 Zone Sizing Information, 01_A2, Cooling, 3704.54517, 4260.22694, 0.21746, 0.25008, LAKEHOODSEAPLANEANNCLG.4CONDNSDBMWB, 7/21 19:00:00, 20.94800, 7.58637E-003, 62.24504, 1.55000, 2.35974E-002, 0.00000
 Zone Sizing Information, 01_A2, Heating, 0.00000, 0.00000, 0.00000, 0.32470, LAKEHOODSEAPLANEANNHTG99.6CONDNSDB, , -22.60000, 4.94287E-004, 62.24504, 1.55000, 2.35974E-002, 0.00000
 Zone Sizing Information, 01_B2, Cooling, 3831.32143, 4406.01964, 0.22489, 0.25862, LAKEHOODSEAPLANEANNCLG.4CONDNSDBMWB, 7/21 19:00:00, 20.94800, 7.58637E-003, 96.77400, 2.47000, 2.35974E-002, 0.00000
 Zone Sizing Information, 01_B2, Heating, 26.98026, 33.72532, 1.58473E-003, 2.35974E-002, LAKEHOODSEAPLANEANNHTG99.6CONDNSDB, 1/21 05:00:00, -22.60000, 4.94287E-004, 96.77400, 2.47000, 2.35974E-002, 0.00000
 Zone Sizing Information, 01_C1, Cooling, 2867.32339, 3297.42190, 0.16830, 0.19355, LAKEHOODSEAPLANEANNCLG.4CONDNSDBMWB, 7/21 19:00:00, 20.94800, 7.58637E-003, 113.62042, 3.39000, 2.35974E-002, 0.00000
 Zone Sizing Information, 01_C1, Heating, 0.00000, 0.00000, 0.00000, 0.32470, LAKEHOODSEAPLANEANNHTG99.6CONDNSDB, , -22.60000, 4.94287E-004, 113.62042, 3.39000, 2.35974E-002, 0.00000
 Zone Sizing Information, 02_A1, Cooling, 4510.92369, 5187.56224, 0.26479, 0.30451, LAKEHOODSEAPLANEANNCLG.4CONDNSDBMWB, 7/21 19:00:00, 20.94800, 7.58637E-003, 57.59988, 1.55000, 2.35974E-002, 0.00000
 Zone Sizing Information, 02_A1, Heating, 0.00000, 0.00000, 0.00000, 0.32470, LAKEHOODSEAPLANEANNHTG99.6CONDNSDB, , -22.60000, 4.94287E-004, 57.59988, 1.55000, 2.35974E-002, 0.00000
 Zone Sizing Information, 02_A2, Cooling, 5539.31199, 6370.20879, 0.32515, 0.37392, LAKEHOODSEAPLANEANNCLG.4CONDNSDBMWB, 7/21 19:00:00, 20.94800, 7.58637E-003, 62.24504, 1.55000, 2.35974E-002, 0.00000
 Zone Sizing Information, 02_A2, Heating, 0.00000, 0.00000, 0.00000, 0.32470, LAKEHOODSEAPLANEANNHTG99.6CONDNSDB, , -22.60000, 4.94287E-004, 62.24504, 1.55000, 2.35974E-002, 0.00000
 Zone Sizing Information, 02_B2, Cooling, 6306.98787, 7253.03606, 0.37020, 0.42573, LAKEHOODSEAPLANEANNCLG.4CONDNSDBMWB, 7/21 19:00:00, 20.94800, 7.58637E-003, 96.77400, 2.47000, 2.35974E-002, 0.00000
 Zone Sizing Information, 02_B2, Heating, 0.00000, 0.00000, 0.00000, 0.32470, LAKEHOODSEAPLANEANNHTG99.6CONDNSDB, , -22.60000, 4.94287E-004, 96.77400, 2.47000, 2.35974E-002, 0.00000
 Zone Sizing Information, 02_C1, Cooling, 5513.16707, 6340.14213, 0.32360, 0.37214, LAKEHOODSEAPLANEANNCLG.4CONDNSDBMWB, 7/21 19:00:00, 20.94800, 7.58637E-003, 113.62042, 3.39000, 2.35974E-002, 0.00000
 Zone Sizing Information, 02_C1, Heating, 0.00000, 0.00000, 0.00000, 0.32470, LAKEHOODSEAPLANEANNHTG99.6CONDNSDB, , -22.60000, 4.94287E-004, 113.62042, 3.39000, 2.35974E-002, 0.00000
 Zone Sizing Information, 03_A1, Cooling, 4751.80135, 5464.57155, 0.27893, 0.32077, LAKEHOODSEAPLANEANNCLG.4CONDNSDBMWB, 7/21 19:00:00, 20.94800, 7.58637E-003, 57.59988, 1.55000, 2.35974E-002, 0.00000
 Zone Sizing Information, 03_A1, Heating, 0.00000, 0.00000, 0.00000, 0.32470, LAKEHOODSEAPLANEANNHTG99.6CONDNSDB, , -22.60000, 4.94287E-004, 57.59988, 1.55000, 2.35974E-002, 0.00000
 Zone Sizing Information, 03_A2, Cooling, 5782.93974, 6650.38070, 0.33945, 0.39037, LAKEHOODSEAPLANEANNCLG.4CONDNSDBMWB, 7/21 19:00:00, 20.94800, 7.58637E-003, 62.24504, 1.55000, 2.35974E-002, 0.00000
 Zone Sizing Information, 03_A2, Heating, 0.00000, 0.00000, 0.00000, 0.32470, LAKEHOODSEAPLANEANNHTG99.6CONDNSDB, , -22.60000, 4.94287E-004, 62.24504, 1.55000, 2.35974E-002, 0.00000
 Zone Sizing Information, 03_B2, Cooling, 6758.70197, 7772.50727, 0.39671, 0.45622, LAKEHOODSEAPLANEANNCLG.4CONDNSDBMWB, 7/21 19:00:00, 20.94800, 7.58637E-003, 96.77400, 2.47000, 2.35974E-002, 0.00000
 Zone Sizing Information, 03_B2, Heating, 0.00000, 0.00000, 0.00000, 0.32470, LAKEHOODSEAPLANEANNHTG99.6CONDNSDB, , -22.60000, 4.94287E-004, 96.77400, 2.47000, 2.35974E-002, 0.00000
 Zone Sizing Information, 03_C1, Cooling, 5878.42603, 6760.18993, 0.34501, 0.39676, LAKEHOODSEAPLANEANNCLG.4CONDNSDBMWB, 7/21 10:10:00, 21.18600, 7.58637E-003, 113.62042, 3.39000, 2.35974E-002, 0.00000
 Zone Sizing Information, 03_C1, Heating, 0.00000, 0.00000, 0.00000, 0.32470, LAKEHOODSEAPLANEANNHTG99.6CONDNSDB, , -22.60000, 4.94287E-004, 113.62042, 3.39000, 2.35974E-002, 0.00000
! <System Sizing Information>, System Name, Load Type, Peak Load Kind, User Design Capacity, Calc Des Air Flow Rate [m3/s], User Des Air Flow Rate [m3/s], Design Day Name, Date/Time of Peak
 System Sizing Information, AIR LOOP HVAC 1, Cooling, Sensible, 1930.72, 0.19632, 0.19632, LAKEHOODSEAPLANEANNCLG.4CONDNSDBMWB, 7/21 00:00:00
 System Sizing Information, AIR LOOP HVAC 1, Heating, Sensible, 1119.35, 2.35974E-002, 2.35974E-002, LAKEHOODSEAPLANEANNHTG99.6CONDNSDB, 1/21 00:10:00
 System Sizing Information, AIR LOOP HVAC 10, Cooling, Sensible, 3839.18, 0.39037, 0.39037, LAKEHOODSEAPLANEANNCLG.4CONDNSDBMWB, 7/21 00:00:00
 System Sizing Information, AIR LOOP HVAC 10, Heating, Sensible, 15402.26, 0.32470, 0.32470, LAKEHOODSEAPLANEANNHTG99.6CONDNSDB, 1/21 00:10:00
 System Sizing Information, AIR LOOP HVAC 11, Cooling, Sensible, 4486.79, 0.45622, 0.45622, LAKEHOODSEAPLANEANNCLG.4CONDNSDBMWB, 7/21 00:00:00
 System Sizing Information, AIR LOOP HVAC 11, Heating, Sensible, 15402.26, 0.32470, 0.32470, LAKEHOODSEAPLANEANNHTG99.6CONDNSDB, 1/21 00:10:00
 System Sizing Information, AIR LOOP HVAC 12, Cooling, Sensible, 4016.04, 0.39676, 0.39676, LAKEHOODSEAPLANEANNCLG.4CONDNSDBMWB, 7/21 00:00:00
 System Sizing Information, AIR LOOP HVAC 12, Heating, Sensible, 15402.26, 0.32470, 0.32470, LAKEHOODSEAPLANEANNHTG99.6CONDNSDB, 1/21 00:10:00
 System Sizing Information, AIR LOOP HVAC 2, Cooling, Sensible, 2459.42, 0.25008, 0.25008, LAKEHOODSEAPLANEANNCLG.4CONDNSDBMWB, 7/21 00:00:00
 System Sizing Information, AIR LOOP HVAC 2, Heating, Sensible, 15402.26, 0.32470, 0.32470, LAKEHOODSEAPLANEANNHTG99.6CONDNSDB, 1/21 00:10:00
 System Sizing Information, AIR LOOP HVAC 3, Cooling, Sensible, 2543.44, 0.25862, 0.25862, LAKEHOODSEAPLANEANNCLG.4CONDNSDBMWB, 7/21 00:00:00
 System Sizing Information, AIR LOOP HVAC 3, Heating, Sensible, 1119.35, 2.35974E-002, 2.35974E-002, LAKEHOODSEAPLANEANNHTG99.6CONDNSDB, 1/21 00:10:00
 System Sizing Information, AIR LOOP HVAC 4, Cooling, Sensible, 1903.49, 0.19355, 0.19355, LAKEHOODSEAPLANEANNCLG.4CONDNSDBMWB, 7/21 00:00:00
 System Sizing Information, AIR LOOP HVAC 4, Heating, Sensible, 15402.26, 0.32470, 0.32470, LAKEHOODSEAPLANEANNHTG99.6CONDNSDB, 1/21 00:10:00
 System Sizing Information, AIR LOOP HVAC 5, Cooling, Sensible, 2994.78, 0.30451, 0.30451, LAKEHOODSEAPLANEANNCLG.4CONDNSDBMWB, 7/21 00:00:00
 System Sizing Information, AIR LOOP HVAC 5, Heating, Sensible, 15402.26, 0.32470, 0.32470, LAKEHOODSEAPLANEANNHTG99.6CONDNSDB, 1/21 00:10:00
 System Sizing Information, AIR LOOP HVAC 6, Cooling, Sensible, 3677.43, 0.37392, 0.37392, LAKEHOODSEAPLANEANNCLG.4CONDNSDBMWB, 7/21 00:00:00
 System Sizing Information, AIR LOOP HVAC 6, Heating, Sensible, 15402.26, 0.32470, 0.32470, LAKEHOODSEAPLANEANNHTG99.6CONDNSDB, 1/21 00:10:00
 System Sizing Information, AIR LOOP HVAC 7, Cooling, Sensible, 4186.92, 0.42573, 0.42573, LAKEHOODSEAPLANEANNCLG.4CONDNSDBMWB, 7/21 00:00:00
 System Sizing Information, AIR LOOP HVAC 7, Heating, Sensible, 15402.26, 0.32470, 0.32470, LAKEHOODSEAPLANEANNHTG99.6CONDNSDB, 1/21 00:10:00
 System Sizing Information, AIR LOOP HVAC 8, Cooling, Sensible, 3659.91, 0.37214, 0.37214, LAKEHOODSEAPLANEANNCLG.4CONDNSDBMWB, 7/21 00:00:00
 System Sizing Information, AIR LOOP HVAC 8, Heating, Sensible, 15402.26, 0.32470, 0.32470, LAKEHOODSEAPLANEANNHTG99.6CONDNSDB, 1/21 00:10:00
 System Sizing Information, AIR LOOP HVAC 9, Cooling, Sensible, 3154.70, 0.32077, 0.32077, LAKEHOODSEAPLANEANNCLG.4CONDNSDBMWB, 7/21 00:00:00
 System Sizing Information, AIR LOOP HVAC 9, Heating, Sensible, 15402.26, 0.32470, 0.32470, LAKEHOODSEAPLANEANNHTG99.6CONDNSDB, 1/21 00:10:00
! <Component Sizing Information>, Component Type, Component Name, Input Field Description, Value
 Component Sizing Information, AirTerminal:SingleDuct:Uncontrolled, DIFFUSER, Design Size Maximum Air Flow Rate [m3/s], 0.19632
 Component Sizing Information, AirTerminal:SingleDuct:Uncontrolled, DIFFUSER 1, Design Size Maximum Air Flow Rate [m3/s], 0.32470
 Component Sizing Information, AirTerminal:SingleDuct:Uncontrolled, DIFFUSER 2, Design Size Maximum Air Flow Rate [m3/s], 0.25862
 Component Sizing Information, AirTerminal:SingleDuct:Uncontrolled, DIFFUSER 3, Design Size Maximum Air Flow Rate [m3/s], 0.32470
 Component Sizing Information, AirTerminal:SingleDuct:Uncontrolled, DIFFUSER 4, Design Size Maximum Air Flow Rate [m3/s], 0.32470
 Component Sizing Information, AirTerminal:SingleDuct:Uncontrolled, DIFFUSER 5, Design Size Maximum Air Flow Rate [m3/s], 0.37392
 Component Sizing Information, AirTerminal:SingleDuct:Uncontrolled, DIFFUSER 11, Design Size Maximum Air Flow Rate [m3/s], 0.42573
 Component Sizing Information, AirTerminal:SingleDuct:Uncontrolled, DIFFUSER 6, Design Size Maximum Air Flow Rate [m3/s], 0.37214
 Component Sizing Information, AirTerminal:SingleDuct:Uncontrolled, DIFFUSER 7, Design Size Maximum Air Flow Rate [m3/s], 0.32470
 Component Sizing Information, AirTerminal:SingleDuct:Uncontrolled, DIFFUSER 8, Design Size Maximum Air Flow Rate [m3/s], 0.39037
 Component Sizing Information, AirTerminal:SingleDuct:Uncontrolled, DIFFUSER 9, Design Size Maximum Air Flow Rate [m3/s], 0.45622
 Component Sizing Information, AirTerminal:SingleDuct:Uncontrolled, DIFFUSER 10, Design Size Maximum Air Flow Rate [m3/s], 0.39676
 Component Sizing Information, AirLoopHVAC, AIR LOOP HVAC 1, Sum of Air Terminal Maximum Heating Flow Rates [m3/s], 0.19632
 Component Sizing Information, AirLoopHVAC, AIR LOOP HVAC 1, Sum of Air Terminal Minimum Heating Flow Rates [m3/s], 0.19632
 Component Sizing Information, AirLoopHVAC, AIR LOOP HVAC 1, Sum of Air Terminal Maximum Flow Rates [m3/s], 0.19632
 Component Sizing Information, AirLoopHVAC, AIR LOOP HVAC 1, Adjusted Heating Design Air Flow Rate [m3/s], 0.19632
 Component Sizing Information, AirLoopHVAC, AIR LOOP HVAC 1, Adjusted Cooling Design Air Flow Rate [m3/s], 0.19632
 Component Sizing Information, AirLoopHVAC, AIR LOOP HVAC 1, Adjusted Main Design Air Flow Rate [m3/s], 0.19632
 Component Sizing Information, AirLoopHVAC, AIR LOOP HVAC 1, User Heating Air Flow Ratio [], 0.30000
 Component Sizing Information, AirLoopHVAC, AIR LOOP HVAC 1, Calculated Heating Air Flow Ratio [], 1.00000
 Component Sizing Information, AirLoopHVAC, AIR LOOP HVAC 10, Sum of Air Terminal Maximum Heating Flow Rates [m3/s], 0.39037
 Component Sizing Information, AirLoopHVAC, AIR LOOP HVAC 10, Sum of Air Terminal Minimum Heating Flow Rates [m3/s], 0.39037
 Component Sizing Information, AirLoopHVAC, AIR LOOP HVAC 10, Sum of Air Terminal Maximum Flow Rates [m3/s], 0.39037
 Component Sizing Information, AirLoopHVAC, AIR LOOP HVAC 10, Adjusted Heating Design Air Flow Rate [m3/s], 0.39037
 Component Sizing Information, AirLoopHVAC, AIR LOOP HVAC 10, Adjusted Cooling Design Air Flow Rate [m3/s], 0.39037
 Component Sizing Information, AirLoopHVAC, AIR LOOP HVAC 10, Adjusted Main Design Air Flow Rate [m3/s], 0.39037
 Component Sizing Information, AirLoopHVAC, AIR LOOP HVAC 10, User Heating Air Flow Ratio [], 0.30000
 Component Sizing Information, AirLoopHVAC, AIR LOOP HVAC 10, Calculated Heating Air Flow Ratio [], 1.00000
 Component Sizing Information, AirLoopHVAC, AIR LOOP HVAC 11, Sum of Air Terminal Maximum Heating Flow Rates [m3/s], 0.45622
 Component Sizing Information, AirLoopHVAC, AIR LOOP HVAC 11, Sum of Air Terminal Minimum Heating Flow Rates [m3/s], 0.45622
 Component Sizing Information, AirLoopHVAC, AIR LOOP HVAC 11, Sum of Air Terminal Maximum Flow Rates [m3/s], 0.45622
 Component Sizing Information, AirLoopHVAC, AIR LOOP HVAC 11, Adjusted Heating Design Air Flow Rate [m3/s], 0.45622
 Component Sizing Information, AirLoopHVAC, AIR LOOP HVAC 11, Adjusted Cooling Design Air Flow Rate [m3/s], 0.45622
 Component Sizing Information, AirLoopHVAC, AIR LOOP HVAC 11, Adjusted Main Design Air Flow Rate [m3/s], 0.45622
 Component Sizing Information, AirLoopHVAC, AIR LOOP HVAC 11, User Heating Air Flow Ratio [], 0.30000
 Component Sizing Information, AirLoopHVAC, AIR LOOP HVAC 11, Calculated Heating Air Flow Ratio [], 1.00000
 Component Sizing Information, AirLoopHVAC, AIR LOOP HVAC 12, Sum of Air Terminal Maximum Heating Flow Rates [m3/s], 0.39676
 Component Sizing Information, AirLoopHVAC, AIR LOOP HVAC 12, Sum of Air Terminal Minimum Heating Flow Rates [m3/s], 0.39676
 Component Sizing Information, AirLoopHVAC, AIR LOOP HVAC 12, Sum of Air Terminal Maximum Flow Rates [m3/s], 0.39676
 Component Sizing Information, AirLoopHVAC, AIR LOOP HVAC 12, Adjusted Heating Design Air Flow Rate [m3/s], 0.39676
 Component Sizing Information, AirLoopHVAC, AIR LOOP HVAC 12, Adjusted Cooling Design Air Flow Rate [m3/s], 0.39676
 Component Sizing Information, AirLoopHVAC, AIR LOOP HVAC 12, Adjusted Main Design Air Flow Rate [m3/s], 0.39676
 Component Sizing Information, AirLoopHVAC, AIR LOOP HVAC 12, User Heating Air Flow Ratio [], 0.30000
 Component Sizing Information, AirLoopHVAC, AIR LOOP HVAC 12, Calculated Heating Air Flow Ratio [], 1.00000
 Component Sizing Information, AirLoopHVAC, AIR LOOP HVAC 2, Sum of Air Terminal Maximum Heating Flow Rates [m3/s], 0.32470
 Component Sizing Information, AirLoopHVAC, AIR LOOP HVAC 2, Sum of Air Terminal Minimum Heating Flow Rates [m3/s], 0.32470
 Component Sizing Information, AirLoopHVAC, AIR LOOP HVAC 2, Sum of Air Terminal Maximum Flow Rates [m3/s], 0.32470
 Component Sizing Information, AirLoopHVAC, AIR LOOP HVAC 2, Adjusted Heating Design Air Flow Rate [m3/s], 0.32470
 Component Sizing Information, AirLoopHVAC, AIR LOOP HVAC 2, Adjusted Cooling Design Air Flow Rate [m3/s], 0.32470
 Component Sizing Information, AirLoopHVAC, AIR LOOP HVAC 2, Adjusted Main Design Air Flow Rate [m3/s], 0.32470
 Component Sizing Information, AirLoopHVAC, AIR LOOP HVAC 2, User Heating Air Flow Ratio [], 0.30000
 Component Sizing Information, AirLoopHVAC, AIR LOOP HVAC 2, Calculated Heating Air Flow Ratio [], 1.00000
 Component Sizing Information, AirLoopHVAC, AIR LOOP HVAC 3, Sum of Air Terminal Maximum Heating Flow Rates [m3/s], 0.25862
 Component Sizing Information, AirLoopHVAC, AIR LOOP HVAC 3, Sum of Air Terminal Minimum Heating Flow Rates [m3/s], 0.25862
 Component Sizing Information, AirLoopHVAC, AIR LOOP HVAC 3, Sum of Air Terminal Maximum Flow Rates [m3/s], 0.25862
 Component Sizing Information, AirLoopHVAC, AIR LOOP HVAC 3, Adjusted Heating Design Air Flow Rate [m3/s], 0.25862
 Component Sizing Information, AirLoopHVAC, AIR LOOP HVAC 3, Adjusted Cooling Design Air Flow Rate [m3/s], 0.25862
 Component Sizing Information, AirLoopHVAC, AIR LOOP HVAC 3, Adjusted Main Design Air Flow Rate [m3/s], 0.25862
 Component Sizing Information, AirLoopHVAC, AIR LOOP HVAC 3, User Heating Air Flow Ratio [], 0.30000
 Component Sizing Information, AirLoopHVAC, AIR LOOP HVAC 3, Calculated Heating Air Flow Ratio [], 1.00000
 Component Sizing Information, AirLoopHVAC, AIR LOOP HVAC 4, Sum of Air Terminal Maximum Heating Flow Rates [m3/s], 0.32470
 Component Sizing Information, AirLoopHVAC, AIR LOOP HVAC 4, Sum of Air Terminal Minimum Heating Flow Rates [m3/s], 0.32470
 Component Sizing Information, AirLoopHVAC, AIR LOOP HVAC 4, Sum of Air Terminal Maximum Flow Rates [m3/s], 0.32470
 Component Sizing Information, AirLoopHVAC, AIR LOOP HVAC 4, Adjusted Heating Design Air Flow Rate [m3/s], 0.32470
 Component Sizing Information, AirLoopHVAC, AIR LOOP HVAC 4, Adjusted Cooling Design Air Flow Rate [m3/s], 0.32470
 Component Sizing Information, AirLoopHVAC, AIR LOOP HVAC 4, Adjusted Main Design Air Flow Rate [m3/s], 0.32470
 Component Sizing Information, AirLoopHVAC, AIR LOOP HVAC 4, User Heating Air Flow Ratio [], 0.30000
 Component Sizing Information, AirLoopHVAC, AIR LOOP HVAC 4, Calculated Heating Air Flow Ratio [], 1.00000
 Component Sizing Information, AirLoopHVAC, AIR LOOP HVAC 5, Sum of Air Terminal Maximum Heating Flow Rates [m3/s], 0.32470
 Component Sizing Information, AirLoopHVAC, AIR LOOP HVAC 5, Sum of Air Terminal Minimum Heating Flow Rates [m3/s], 0.32470
 Component Sizing Information, AirLoopHVAC, AIR LOOP HVAC 5, Sum of Air Terminal Maximum Flow Rates [m3/s], 0.32470
 Component Sizing Information, AirLoopHVAC, AIR LOOP HVAC 5, Adjusted Heating Design Air Flow Rate [m3/s], 0.32470
 Component Sizing Information, AirLoopHVAC, AIR LOOP HVAC 5, Adjusted Cooling Design Air Flow Rate [m3/s], 0.32470
 Component Sizing Information, AirLoopHVAC, AIR LOOP HVAC 5, Adjusted Main Design Air Flow Rate [m3/s], 0.32470
 Component Sizing Information, AirLoopHVAC, AIR LOOP HVAC 5, User Heating Air Flow Ratio [], 0.30000
 Component Sizing Information, AirLoopHVAC, AIR LOOP HVAC 5, Calculated Heating Air Flow Ratio [], 1.00000
 Component Sizing Information, AirLoopHVAC, AIR LOOP HVAC 6, Sum of Air Terminal Maximum Heating Flow Rates [m3/s], 0.37392
 Component Sizing Information, AirLoopHVAC, AIR LOOP HVAC 6, Sum of Air Terminal Minimum Heating Flow Rates [m3/s], 0.37392
 Component Sizing Information, AirLoopHVAC, AIR LOOP HVAC 6, Sum of Air Terminal Maximum Flow Rates [m3/s], 0.37392
 Component Sizing Information, AirLoopHVAC, AIR LOOP HVAC 6, Adjusted Heating Design Air Flow Rate [m3/s], 0.37392
 Component Sizing Information, AirLoopHVAC, AIR LOOP HVAC 6, Adjusted Cooling Design Air Flow Rate [m3/s], 0.37392
 Component Sizing Information, AirLoopHVAC, AIR LOOP HVAC 6, Adjusted Main Design Air Flow Rate [m3/s], 0.37392
 Component Sizing Information, AirLoopHVAC, AIR LOOP HVAC 6, User Heating Air Flow Ratio [], 0.30000
 Component Sizing Information, AirLoopHVAC, AIR LOOP HVAC 6, Calculated Heating Air Flow Ratio [], 1.00000
 Component Sizing Information, AirLoopHVAC, AIR LOOP HVAC 7, Sum of Air Terminal Maximum Heating Flow Rates [m3/s], 0.42573
 Component Sizing Information, AirLoopHVAC, AIR LOOP HVAC 7, Sum of Air Terminal Minimum Heating Flow Rates [m3/s], 0.42573
 Component Sizing Information, AirLoopHVAC, AIR LOOP HVAC 7, Sum of Air Terminal Maximum Flow Rates [m3/s], 0.42573
 Component Sizing Information, AirLoopHVAC, AIR LOOP HVAC 7, Adjusted Heating Design Air Flow Rate [m3/s], 0.42573
 Component Sizing Information, AirLoopHVAC, AIR LOOP HVAC 7, Adjusted Cooling Design Air Flow Rate [m3/s], 0.42573
 Component Sizing Information, AirLoopHVAC, AIR LOOP HVAC 7, Adjusted Main Design Air Flow Rate [m3/s], 0.42573
 Component Sizing Information, AirLoopHVAC, AIR LOOP HVAC 7, User Heating Air Flow Ratio [], 0.30000
 Component Sizing Information, AirLoopHVAC, AIR LOOP HVAC 7, Calculated Heating Air Flow Ratio [], 1.00000
 Component Sizing Information, AirLoopHVAC, AIR LOOP HVAC 8, Sum of Air Terminal Maximum Heating Flow Rates [m3/s], 0.37214
 Component Sizing Information, AirLoopHVAC, AIR LOOP HVAC 8, Sum of Air Terminal Minimum Heating Flow Rates [m3/s], 0.37214
 Component Sizing Information, AirLoopHVAC, AIR LOOP HVAC 8, Sum of Air Terminal Maximum Flow Rates [m3/s], 0.37214
 Component Sizing Information, AirLoopHVAC, AIR LOOP HVAC 8, Adjusted Heating Design Air Flow Rate [m3/s], 0.37214
 Component Sizing Information, AirLoopHVAC, AIR LOOP HVAC 8, Adjusted Cooling Design Air Flow Rate [m3/s], 0.37214
 Component Sizing Information, AirLoopHVAC, AIR LOOP HVAC 8, Adjusted Main Design Air Flow Rate [m3/s], 0.37214
 Component Sizing Information, AirLoopHVAC, AIR LOOP HVAC 8, User Heating Air Flow Ratio [], 0.30000
 Component Sizing Information, AirLoopHVAC, AIR LOOP HVAC 8, Calculated Heating Air Flow Ratio [], 1.00000
 Component Sizing Information, AirLoopHVAC, AIR LOOP HVAC 9, Sum of Air Terminal Maximum Heating Flow Rates [m3/s], 0.32470
 Component Sizing Information, AirLoopHVAC, AIR LOOP HVAC 9, Sum of Air Terminal Minimum Heating Flow Rates [m3/s], 0.32470
 Component Sizing Information, AirLoopHVAC, AIR LOOP HVAC 9, Sum of Air Terminal Maximum Flow Rates [m3/s], 0.32470
 Component Sizing Information, AirLoopHVAC, AIR LOOP HVAC 9, Adjusted Heating Design Air Flow Rate [m3/s], 0.32470
 Component Sizing Information, AirLoopHVAC, AIR LOOP HVAC 9, Adjusted Cooling Design Air Flow Rate [m3/s], 0.32470
 Component Sizing Information, AirLoopHVAC, AIR LOOP HVAC 9, Adjusted Main Design Air Flow Rate [m3/s], 0.32470
 Component Sizing Information, AirLoopHVAC, AIR LOOP HVAC 9, User Heating Air Flow Ratio [], 0.30000
 Component Sizing Information, AirLoopHVAC, AIR LOOP HVAC 9, Calculated Heating Air Flow Ratio [], 1.00000
 Component Sizing Information, AirLoopHVAC, AIR LOOP HVAC 1, Design Supply Air Flow Rate [m3/s], 0.19632
 Component Sizing Information, AirLoopHVAC, AIR LOOP HVAC 10, Design Supply Air Flow Rate [m3/s], 0.39037
 Component Sizing Information, AirLoopHVAC, AIR LOOP HVAC 11, Design Supply Air Flow Rate [m3/s], 0.45622
 Component Sizing Information, AirLoopHVAC, AIR LOOP HVAC 12, Design Supply Air Flow Rate [m3/s], 0.39676
 Component Sizing Information, AirLoopHVAC, AIR LOOP HVAC 2, Design Supply Air Flow Rate [m3/s], 0.32470
 Component Sizing Information, AirLoopHVAC, AIR LOOP HVAC 3, Design Supply Air Flow Rate [m3/s], 0.25862
 Component Sizing Information, AirLoopHVAC, AIR LOOP HVAC 4, Design Supply Air Flow Rate [m3/s], 0.32470
 Component Sizing Information, AirLoopHVAC, AIR LOOP HVAC 5, Design Supply Air Flow Rate [m3/s], 0.32470
 Component Sizing Information, AirLoopHVAC, AIR LOOP HVAC 6, Design Supply Air Flow Rate [m3/s], 0.37392
 Component Sizing Information, AirLoopHVAC, AIR LOOP HVAC 7, Design Supply Air Flow Rate [m3/s], 0.42573
 Component Sizing Information, AirLoopHVAC, AIR LOOP HVAC 8, Design Supply Air Flow Rate [m3/s], 0.37214
 Component Sizing Information, AirLoopHVAC, AIR LOOP HVAC 9, Design Supply Air Flow Rate [m3/s], 0.32470
!<Controller:MechanicalVentilation>,Name,Availability Schedule Name,Demand Controlled Ventilation {Yes/No},System Outdoor Air Method,Zone Maximum Outdoor Air Fraction,Number of Zones,Zone Name,DSOA Name,DSZAD Name
 Controller:MechanicalVentilation,CONTROLLER MECHANICAL VENTILATION 1,ALWAYS ON DISCRETE HVAC_LIBRARY,No,ZoneSum,1.00,1,01_A1,HVAC_OA,01_A1 DESIGN SPEC ZONE AIR DIST
 Controller:MechanicalVentilation,CONTROLLER MECHANICAL VENTILATION 2,ALWAYS ON DISCRETE HVAC_LIBRARY,No,ZoneSum,1.00,1,01_A2,HVAC_OA,01_A2 DESIGN SPEC ZONE AIR DIST
 Controller:MechanicalVentilation,CONTROLLER MECHANICAL VENTILATION 3,ALWAYS ON DISCRETE HVAC_LIBRARY,No,ZoneSum,1.00,1,01_B2,HVAC_OA,01_B2 DESIGN SPEC ZONE AIR DIST
 Controller:MechanicalVentilation,CONTROLLER MECHANICAL VENTILATION 4,ALWAYS ON DISCRETE HVAC_LIBRARY,No,ZoneSum,1.00,1,01_C1,HVAC_OA,01_C1 DESIGN SPEC ZONE AIR DIST
 Controller:MechanicalVentilation,CONTROLLER MECHANICAL VENTILATION 5,ALWAYS ON DISCRETE HVAC_LIBRARY,No,ZoneSum,1.00,1,02_A1,HVAC_OA,02_A1 DESIGN SPEC ZONE AIR DIST
 Controller:MechanicalVentilation,CONTROLLER MECHANICAL VENTILATION 6,ALWAYS ON DISCRETE HVAC_LIBRARY,No,ZoneSum,1.00,1,02_A2,HVAC_OA,02_A2 DESIGN SPEC ZONE AIR DIST
 Controller:MechanicalVentilation,CONTROLLER MECHANICAL VENTILATION 7,ALWAYS ON DISCRETE HVAC_LIBRARY,No,ZoneSum,1.00,1,02_B2,HVAC_OA,02_B2 DESIGN SPEC ZONE AIR DIST
 Controller:MechanicalVentilation,CONTROLLER MECHANICAL VENTILATION 8,ALWAYS ON DISCRETE HVAC_LIBRARY,No,ZoneSum,1.00,1,02_C1,HVAC_OA,02_C1 DESIGN SPEC ZONE AIR DIST
 Controller:MechanicalVentilation,CONTROLLER MECHANICAL VENTILATION 9,ALWAYS ON DISCRETE HVAC_LIBRARY,No,ZoneSum,1.00,1,03_A1,HVAC_OA,03_A1 DESIGN SPEC ZONE AIR DIST
 Controller:MechanicalVentilation,CONTROLLER MECHANICAL VENTILATION 10,ALWAYS ON DISCRETE HVAC_LIBRARY,No,ZoneSum,1.00,1,03_A2,HVAC_OA,03_A2 DESIGN SPEC ZONE AIR DIST
 Controller:MechanicalVentilation,CONTROLLER MECHANICAL VENTILATION 11,ALWAYS ON DISCRETE HVAC_LIBRARY,No,ZoneSum,1.00,1,03_B2,HVAC_OA,03_B2 DESIGN SPEC ZONE AIR DIST
 Controller:MechanicalVentilation,CONTROLLER MECHANICAL VENTILATION 12,ALWAYS ON DISCRETE HVAC_LIBRARY,No,ZoneSum,1.00,1,03_C1,HVAC_OA,03_C1 DESIGN SPEC ZONE AIR DIST
 Component Sizing Information, Controller:OutdoorAir, OUTDOOR AIR CONTROLLER, Maximum Outdoor Air Flow Rate [m3/s], 0.19632
 Component Sizing Information, Controller:OutdoorAir, OUTDOOR AIR CONTROLLER, Minimum Outdoor Air Flow Rate [m3/s], 2.35974E-002
 Component Sizing Information, AirLoopHVAC:UnitarySystem, UNITARY - DX HEAT PUMP - CYCLING - ELEC REHEAT, Design Size Supply Air Flow Rate [m3/s], 0.19632
 Component Sizing Information, AirLoopHVAC:UnitarySystem, UNITARY - DX HEAT PUMP - CYCLING - ELEC REHEAT, Design Size Heating Supply Air Flow Rate [m3/s], 0.19632
 Component Sizing Information, AirLoopHVAC:UnitarySystem, UNITARY - DX HEAT PUMP - CYCLING - ELEC REHEAT, Design Size Cooling Supply Air Flow Rate [m3/s], 0.19632
 Component Sizing Information, AirLoopHVAC:UnitarySystem, UNITARY - DX HEAT PUMP - CYCLING - ELEC REHEAT, Design Size No Load Supply Air Flow Rate [m3/s], 0.19632
 Component Sizing Information, AirLoopHVAC:UnitarySystem, UNITARY - DX HEAT PUMP - CYCLING - ELEC REHEAT, Design Size Nominal Cooling Capacity [W], 4875.01472
 Component Sizing Information, AirLoopHVAC:UnitarySystem, UNITARY - DX HEAT PUMP - CYCLING - ELEC REHEAT, Design Size Nominal Heating Capacity [W], 4875.01472
 Component Sizing Information, AirLoopHVAC:UnitarySystem, UNITARY - DX HEAT PUMP - CYCLING - ELEC REHEAT, Design Size Maximum Supply Air Temperature [C], 16.70000
 Component Sizing Information, AirLoopHVAC:UnitarySystem, UNITARY - DX HEAT PUMP - CYCLING - ELEC REHEAT, User-Specified Maximum Supply Air Temperature [C], 80.00000
 Component Sizing Information, AirLoopHVAC:UnitarySystem, UNITARY - DX HEAT PUMP - CYCLING - ELEC REHEAT, Design Size Supplemental Heating Coil Nominal Capacity [W], 4875.01472
 Component Sizing Information, AirLoopHVAC:UnitarySystem, UNITARY - DX HEAT PUMP - CYCLING - ELEC REHEAT, User-Specified Supplemental Heating Coil Nominal Capacity [W], 4875.01472
 Component Sizing Information, AirLoopHVAC:UnitarySystem, UNITARY - DX HEAT PUMP - CYCLING - ELEC REHEAT, Fraction of Supply Air Flow That Goes Through the Controlling Zone, 1.00000
 Component Sizing Information, Fan:OnOff, FAN ON OFF 5, Design Size Maximum Flow Rate [m3/s], 0.19632
 Component Sizing Information, Coil:Cooling:DX:SingleSpeed, 1 SPD DX CLG COIL 4, Design Size Rated Air Flow Rate [m3/s], 0.19632
 Component Sizing Information, Coil:Cooling:DX:SingleSpeed, 1 SPD DX CLG COIL 4, Design Size Gross Rated Total Cooling Capacity [W], 4875.01472
 Component Sizing Information, Coil:Cooling:DX:SingleSpeed, 1 SPD DX CLG COIL 4, Design Size Gross Rated Sensible Heat Ratio, 0.69808
! <DX Cooling Coil Standard Rating Information>, Component Type, Component Name, Standard Rating (Net) Cooling Capacity {W}, Standard Rated Net COP {W/W}, EER {Btu/W-h}, SEER {Btu/W-h}, IEER {Btu/W-h}
 DX Cooling Coil Standard Rating Information, Coil:Cooling:DX:SingleSpeed, 1 SPD DX CLG COIL 4, 4720.1, 3.07, 10.47, 10.41, 10.78
 Component Sizing Information, Coil:Heating:DX:SingleSpeed, 1 SPD DX HTG COIL 3, Design Size Rated Air Flow Rate [m3/s], 0.19632
 Component Sizing Information, Coil:Heating:DX:SingleSpeed, 1 SPD DX HTG COIL 3, Design Size Gross Rated Heating Capacity [W], 4875.01472
 Component Sizing Information, Coil:Heating:DX:SingleSpeed, 1 SPD DX HTG COIL 3, Design Size Resistive Defrost Heater Capacity [W], 4875.01472
 Component Sizing Information, Coil:Heating:DX:SingleSpeed, 1 SPD DX HTG COIL 3, User-Specified Resistive Defrost Heater Capacity [W], 2000.00000
! <DX Heating Coil Standard Rating Information>, Component Type, Component Name, High Temperature Heating (net) Rating Capacity {W}, Low Temperature Heating (net) Rating Capacity {W}, HSPF {Btu/W-h}, Region Number
 DX Heating Coil Standard Rating Information, Coil:Heating:DX:SingleSpeed, 1 SPD DX HTG COIL 3, 5032.7, 2769.3, 6.53, 4
 Component Sizing Information, Coil:Heating:Electric, ELEC HTG COIL 5, Design Size Nominal Capacity [W], 4875.01472
 Component Sizing Information, Controller:OutdoorAir, OUTDOOR AIR CONTROLLER 9, Maximum Outdoor Air Flow Rate [m3/s], 0.39037
 Component Sizing Information, Controller:OutdoorAir, OUTDOOR AIR CONTROLLER 9, Minimum Outdoor Air Flow Rate [m3/s], 2.35974E-002
 Component Sizing Information, AirLoopHVAC:UnitarySystem, UNITARY - DX HEAT PUMP - CYCLING - ELEC REHEAT 9, Design Size Supply Air Flow Rate [m3/s], 0.39037
 Component Sizing Information, AirLoopHVAC:UnitarySystem, UNITARY - DX HEAT PUMP - CYCLING - ELEC REHEAT 9, Design Size Heating Supply Air Flow Rate [m3/s], 0.39037
 Component Sizing Information, AirLoopHVAC:UnitarySystem, UNITARY - DX HEAT PUMP - CYCLING - ELEC REHEAT 9, Design Size Cooling Supply Air Flow Rate [m3/s], 0.39037
 Component Sizing Information, AirLoopHVAC:UnitarySystem, UNITARY - DX HEAT PUMP - CYCLING - ELEC REHEAT 9, Design Size No Load Supply Air Flow Rate [m3/s], 0.39037
 Component Sizing Information, AirLoopHVAC:UnitarySystem, UNITARY - DX HEAT PUMP - CYCLING - ELEC REHEAT 9, Design Size Nominal Cooling Capacity [W], 9693.83752
 Component Sizing Information, AirLoopHVAC:UnitarySystem, UNITARY - DX HEAT PUMP - CYCLING - ELEC REHEAT 9, Design Size Nominal Heating Capacity [W], 9693.83752
 Component Sizing Information, AirLoopHVAC:UnitarySystem, UNITARY - DX HEAT PUMP - CYCLING - ELEC REHEAT 9, Design Size Maximum Supply Air Temperature [C], 16.70000
 Component Sizing Information, AirLoopHVAC:UnitarySystem, UNITARY - DX HEAT PUMP - CYCLING - ELEC REHEAT 9, User-Specified Maximum Supply Air Temperature [C], 80.00000
 Component Sizing Information, AirLoopHVAC:UnitarySystem, UNITARY - DX HEAT PUMP - CYCLING - ELEC REHEAT 9, Design Size Supplemental Heating Coil Nominal Capacity [W], 9693.83752
 Component Sizing Information, AirLoopHVAC:UnitarySystem, UNITARY - DX HEAT PUMP - CYCLING - ELEC REHEAT 9, User-Specified Supplemental Heating Coil Nominal Capacity [W], 9693.83752
 Component Sizing Information, AirLoopHVAC:UnitarySystem, UNITARY - DX HEAT PUMP - CYCLING - ELEC REHEAT 9, Fraction of Supply Air Flow That Goes Through the Controlling Zone, 1.00000
 Component Sizing Information, Fan:OnOff, FAN ON OFF 14, Design Size Maximum Flow Rate [m3/s], 0.39037
 Component Sizing Information, Coil:Cooling:DX:SingleSpeed, 1 SPD DX CLG COIL 13, Design Size Rated Air Flow Rate [m3/s], 0.39037
 Component Sizing Information, Coil:Cooling:DX:SingleSpeed, 1 SPD DX CLG COIL 13, Design Size Gross Rated Total Cooling Capacity [W], 9693.83752
 Component Sizing Information, Coil:Cooling:DX:SingleSpeed, 1 SPD DX CLG COIL 13, Design Size Gross Rated Sensible Heat Ratio, 0.69808
 DX Cooling Coil Standard Rating Information, Coil:Cooling:DX:SingleSpeed, 1 SPD DX CLG COIL 13, 9385.9, 3.07, 10.47, 10.41, 10.78
 Component Sizing Information, Coil:Heating:DX:SingleSpeed, 1 SPD DX HTG COIL 12, Design Size Rated Air Flow Rate [m3/s], 0.39037
 Component Sizing Information, Coil:Heating:DX:SingleSpeed, 1 SPD DX HTG COIL 12, Design Size Gross Rated Heating Capacity [W], 9693.83752
 Component Sizing Information, Coil:Heating:DX:SingleSpeed, 1 SPD DX HTG COIL 12, Design Size Resistive Defrost Heater Capacity [W], 9693.83752
 Component Sizing Information, Coil:Heating:DX:SingleSpeed, 1 SPD DX HTG COIL 12, User-Specified Resistive Defrost Heater Capacity [W], 2000.00000
 DX Heating Coil Standard Rating Information, Coil:Heating:DX:SingleSpeed, 1 SPD DX HTG COIL 12, 10007.5, 5506.7, 6.54, 4
 Component Sizing Information, Coil:Heating:Electric, ELEC HTG COIL 14, Design Size Nominal Capacity [W], 9693.83752
 Component Sizing Information, Controller:OutdoorAir, OUTDOOR AIR CONTROLLER 10, Maximum Outdoor Air Flow Rate [m3/s], 0.45622
 Component Sizing Information, Controller:OutdoorAir, OUTDOOR AIR CONTROLLER 10, Minimum Outdoor Air Flow Rate [m3/s], 2.35974E-002
 Component Sizing Information, AirLoopHVAC:UnitarySystem, UNITARY - DX HEAT PUMP - CYCLING - ELEC REHEAT 10, Design Size Supply Air Flow Rate [m3/s], 0.45622
 Component Sizing Information, AirLoopHVAC:UnitarySystem, UNITARY - DX HEAT PUMP - CYCLING - ELEC REHEAT 10, Design Size Heating Supply Air Flow Rate [m3/s], 0.45622
 Component Sizing Information, AirLoopHVAC:UnitarySystem, UNITARY - DX HEAT PUMP - CYCLING - ELEC REHEAT 10, Design Size Cooling Supply Air Flow Rate [m3/s], 0.45622
 Component Sizing Information, AirLoopHVAC:UnitarySystem, UNITARY - DX HEAT PUMP - CYCLING - ELEC REHEAT 10, Design Size No Load Supply Air Flow Rate [m3/s], 0.45622
 Component Sizing Information, AirLoopHVAC:UnitarySystem, UNITARY - DX HEAT PUMP - CYCLING - ELEC REHEAT 10, Design Size Nominal Cooling Capacity [W], 11329.03998
 Component Sizing Information, AirLoopHVAC:UnitarySystem, UNITARY - DX HEAT PUMP - CYCLING - ELEC REHEAT 10, Design Size Nominal Heating Capacity [W], 11329.03998
 Component Sizing Information, AirLoopHVAC:UnitarySystem, UNITARY - DX HEAT PUMP - CYCLING - ELEC REHEAT 10, Design Size Maximum Supply Air Temperature [C], 16.70000
 Component Sizing Information, AirLoopHVAC:UnitarySystem, UNITARY - DX HEAT PUMP - CYCLING - ELEC REHEAT 10, User-Specified Maximum Supply Air Temperature [C], 80.00000
 Component Sizing Information, AirLoopHVAC:UnitarySystem, UNITARY - DX HEAT PUMP - CYCLING - ELEC REHEAT 10, Design Size Supplemental Heating Coil Nominal Capacity [W], 11329.03998
 Component Sizing Information, AirLoopHVAC:UnitarySystem, UNITARY - DX HEAT PUMP - CYCLING - ELEC REHEAT 10, User-Specified Supplemental Heating Coil Nominal Capacity [W], 11329.03998
 Component Sizing Information, AirLoopHVAC:UnitarySystem, UNITARY - DX HEAT PUMP - CYCLING - ELEC REHEAT 10, Fraction of Supply Air Flow That Goes Through the Controlling Zone, 1.00000
 Component Sizing Information, Fan:OnOff, FAN ON OFF 15, Design Size Maximum Flow Rate [m3/s], 0.45622
 Component Sizing Information, Coil:Cooling:DX:SingleSpeed, 1 SPD DX CLG COIL 14, Design Size Rated Air Flow Rate [m3/s], 0.45622
 Component Sizing Information, Coil:Cooling:DX:SingleSpeed, 1 SPD DX CLG COIL 14, Design Size Gross Rated Total Cooling Capacity [W], 11329.03998
 Component Sizing Information, Coil:Cooling:DX:SingleSpeed, 1 SPD DX CLG COIL 14, Design Size Gross Rated Sensible Heat Ratio, 0.69808
 DX Cooling Coil Standard Rating Information, Coil:Cooling:DX:SingleSpeed, 1 SPD DX CLG COIL 14, 10969.1, 3.07, 10.47, 10.41, 10.78
 Component Sizing Information, Coil:Heating:DX:SingleSpeed, 1 SPD DX HTG COIL 13, Design Size Rated Air Flow Rate [m3/s], 0.45622
 Component Sizing Information, Coil:Heating:DX:SingleSpeed, 1 SPD DX HTG COIL 13, Design Size Gross Rated Heating Capacity [W], 11329.03998
 Component Sizing Information, Coil:Heating:DX:SingleSpeed, 1 SPD DX HTG COIL 13, Design Size Resistive Defrost Heater Capacity [W], 11329.03998
 Component Sizing Information, Coil:Heating:DX:SingleSpeed, 1 SPD DX HTG COIL 13, User-Specified Resistive Defrost Heater Capacity [W], 2000.00000
 DX Heating Coil Standard Rating Information, Coil:Heating:DX:SingleSpeed, 1 SPD DX HTG COIL 13, 11695.6, 6435.6, 6.54, 4
 Component Sizing Information, Coil:Heating:Electric, ELEC HTG COIL 15, Design Size Nominal Capacity [W], 11329.03998
 Component Sizing Information, Controller:OutdoorAir, OUTDOOR AIR CONTROLLER 11, Maximum Outdoor Air Flow Rate [m3/s], 0.39676
 Component Sizing Information, Controller:OutdoorAir, OUTDOOR AIR CONTROLLER 11, Minimum Outdoor Air Flow Rate [m3/s], 2.35974E-002
 Component Sizing Information, AirLoopHVAC:UnitarySystem, UNITARY - DX HEAT PUMP - CYCLING - ELEC REHEAT 11, Design Size Supply Air Flow Rate [m3/s], 0.39676
 Component Sizing Information, AirLoopHVAC:UnitarySystem, UNITARY - DX HEAT PUMP - CYCLING - ELEC REHEAT 11, Design Size Heating Supply Air Flow Rate [m3/s], 0.39676
 Component Sizing Information, AirLoopHVAC:UnitarySystem, UNITARY - DX HEAT PUMP - CYCLING - ELEC REHEAT 11, Design Size Cooling Supply Air Flow Rate [m3/s], 0.39676
 Component Sizing Information, AirLoopHVAC:UnitarySystem, UNITARY - DX HEAT PUMP - CYCLING - ELEC REHEAT 11, Design Size No Load Supply Air Flow Rate [m3/s], 0.39676
 Component Sizing Information, AirLoopHVAC:UnitarySystem, UNITARY - DX HEAT PUMP - CYCLING - ELEC REHEAT 11, Design Size Nominal Cooling Capacity [W], 9852.61548
 Component Sizing Information, AirLoopHVAC:UnitarySystem, UNITARY - DX HEAT PUMP - CYCLING - ELEC REHEAT 11, Design Size Nominal Heating Capacity [W], 9852.61548
 Component Sizing Information, AirLoopHVAC:UnitarySystem, UNITARY - DX HEAT PUMP - CYCLING - ELEC REHEAT 11, Design Size Maximum Supply Air Temperature [C], 16.70000
 Component Sizing Information, AirLoopHVAC:UnitarySystem, UNITARY - DX HEAT PUMP - CYCLING - ELEC REHEAT 11, User-Specified Maximum Supply Air Temperature [C], 80.00000
 Component Sizing Information, AirLoopHVAC:UnitarySystem, UNITARY - DX HEAT PUMP - CYCLING - ELEC REHEAT 11, Design Size Supplemental Heating Coil Nominal Capacity [W], 9852.61548
 Component Sizing Information, AirLoopHVAC:UnitarySystem, UNITARY - DX HEAT PUMP - CYCLING - ELEC REHEAT 11, User-Specified Supplemental Heating Coil Nominal Capacity [W], 9852.61548
 Component Sizing Information, AirLoopHVAC:UnitarySystem, UNITARY - DX HEAT PUMP - CYCLING - ELEC REHEAT 11, Fraction of Supply Air Flow That Goes Through the Controlling Zone, 1.00000
 Component Sizing Information, Fan:OnOff, FAN ON OFF 16, Design Size Maximum Flow Rate [m3/s], 0.39676
 Component Sizing Information, Coil:Cooling:DX:SingleSpeed, 1 SPD DX CLG COIL 15, Design Size Rated Air Flow Rate [m3/s], 0.39676
 Component Sizing Information, Coil:Cooling:DX:SingleSpeed, 1 SPD DX CLG COIL 15, Design Size Gross Rated Total Cooling Capacity [W], 9852.61548
 Component Sizing Information, Coil:Cooling:DX:SingleSpeed, 1 SPD DX CLG COIL 15, Design Size Gross Rated Sensible Heat Ratio, 0.69808
 DX Cooling Coil Standard Rating Information, Coil:Cooling:DX:SingleSpeed, 1 SPD DX CLG COIL 15, 9539.6, 3.07, 10.47, 10.41, 10.78
 Component Sizing Information, Coil:Heating:DX:SingleSpeed, 1 SPD DX HTG COIL 14, Design Size Rated Air Flow Rate [m3/s], 0.39676
 Component Sizing Information, Coil:Heating:DX:SingleSpeed, 1 SPD DX HTG COIL 14, Design Size Gross Rated Heating Capacity [W], 9852.61548
 Component Sizing Information, Coil:Heating:DX:SingleSpeed, 1 SPD DX HTG COIL 14, Design Size Resistive Defrost Heater Capacity [W], 9852.61548
 Component Sizing Information, Coil:Heating:DX:SingleSpeed, 1 SPD DX HTG COIL 14, User-Specified Resistive Defrost Heater Capacity [W], 2000.00000
 DX Heating Coil Standard Rating Information, Coil:Heating:DX:SingleSpeed, 1 SPD DX HTG COIL 14, 10171.4, 5596.9, 6.54, 4
 Component Sizing Information, Coil:Heating:Electric, ELEC HTG COIL 16, Design Size Nominal Capacity [W], 9852.61548
 Component Sizing Information, Controller:OutdoorAir, OUTDOOR AIR CONTROLLER 1, Maximum Outdoor Air Flow Rate [m3/s], 0.32470
 Component Sizing Information, Controller:OutdoorAir, OUTDOOR AIR CONTROLLER 1, Minimum Outdoor Air Flow Rate [m3/s], 2.35974E-002
 Component Sizing Information, AirLoopHVAC:UnitarySystem, UNITARY - DX HEAT PUMP - CYCLING - ELEC REHEAT 1, Design Size Supply Air Flow Rate [m3/s], 0.32470
 Component Sizing Information, AirLoopHVAC:UnitarySystem, UNITARY - DX HEAT PUMP - CYCLING - ELEC REHEAT 1, Design Size Heating Supply Air Flow Rate [m3/s], 0.32470
 Component Sizing Information, AirLoopHVAC:UnitarySystem, UNITARY - DX HEAT PUMP - CYCLING - ELEC REHEAT 1, Design Size Cooling Supply Air Flow Rate [m3/s], 0.32470
 Component Sizing Information, AirLoopHVAC:UnitarySystem, UNITARY - DX HEAT PUMP - CYCLING - ELEC REHEAT 1, Design Size No Load Supply Air Flow Rate [m3/s], 0.32470
 Component Sizing Information, AirLoopHVAC:UnitarySystem, UNITARY - DX HEAT PUMP - CYCLING - ELEC REHEAT 1, Design Size Nominal Cooling Capacity [W], 8063.07030
[...]
 Warmup Convergence Information,01_A1,SizingPeriod: LAKEHOODSEAPLANEANNCLG.4CONDNSDBMWB,5.6944993762E-005,1.2094784786E-004,Pass,Pass,3.3787180717E-002,6.4273995372E-002,Pass,Pass
 Warmup Convergence Information,01_A2,SizingPeriod: LAKEHOODSEAPLANEANNCLG.4CONDNSDBMWB,4.0879641100E-005,8.3954786498E-005,Pass,Pass,2.5366761886E-002,5.1060940921E-002,Pass,Pass
 Warmup Convergence Information,01_B2,SizingPeriod: LAKEHOODSEAPLANEANNCLG.4CONDNSDBMWB,5.1995534601E-003,1.5554800973E-002,Pass,Pass,7.6787824439E-002,0.2365298621,Pass,Pass
 Warmup Convergence Information,01_C1,SizingPeriod: LAKEHOODSEAPLANEANNCLG.4CONDNSDBMWB,7.6833474782E-003,2.2804990215E-002,Pass,Pass,0.1725546665,0.6377284570,Pass,Pass
 Warmup Convergence Information,02_A1,SizingPeriod: LAKEHOODSEAPLANEANNCLG.4CONDNSDBMWB,3.4291039164E-005,6.2575317781E-005,Pass,Pass,1.7385167291E-002,2.9662837736E-002,Pass,Pass
 Warmup Convergence Information,02_A2,SizingPeriod: LAKEHOODSEAPLANEANNCLG.4CONDNSDBMWB,4.2066795701E-005,7.1628647729E-005,Pass,Pass,1.6673520096E-002,2.7174739648E-002,Pass,Pass
 Warmup Convergence Information,02_B2,SizingPeriod: LAKEHOODSEAPLANEANNCLG.4CONDNSDBMWB,2.7113545014E-005,4.7270512383E-005,Pass,Pass,1.8917985235E-002,2.9008479144E-002,Pass,Pass
 Warmup Convergence Information,02_C1,SizingPeriod: LAKEHOODSEAPLANEANNCLG.4CONDNSDBMWB,3.5798362052E-005,5.6476895464E-005,Pass,Pass,1.9918511311E-002,3.0011689675E-002,Pass,Pass
 Warmup Convergence Information,03_A1,SizingPeriod: LAKEHOODSEAPLANEANNCLG.4CONDNSDBMWB,3.4312107916E-005,6.5554196310E-005,Pass,Pass,1.8862227918E-002,3.3136739815E-002,Pass,Pass
 Warmup Convergence Information,03_A2,SizingPeriod: LAKEHOODSEAPLANEANNCLG.4CONDNSDBMWB,2.7003759577E-005,5.1922848651E-005,Pass,Pass,1.7649695106E-002,3.1174084626E-002,Pass,Pass
 Warmup Convergence Information,03_B2,SizingPeriod: LAKEHOODSEAPLANEANNCLG.4CONDNSDBMWB,2.5288627740E-005,4.5074073728E-005,Pass,Pass,2.0533035645E-002,3.2308284593E-002,Pass,Pass
 Warmup Convergence Information,03_C1,SizingPeriod: LAKEHOODSEAPLANEANNCLG.4CONDNSDBMWB,3.4426606596E-005,5.5312996179E-005,Pass,Pass,2.1452855069E-002,3.3194552012E-002,Pass,Pass
Environment,LAKEHOODSEAPLANEANNCLG.4CONDNSDPMDB,SizingPeriod:DesignDay,07/21,07/21,SummerDesignDay,1,N/A,N/A,N/A,N/A,N/A,N/A
Environment:Daylight Saving,No,SizingPeriod:DesignDay
Environment:Design Day Data,17.10,6.80,DefaultMultipliers,101061,270,2.9,0.00,No,No
Environment:Design Day Misc,202,1084.4,0.2082,0.1365,1.0,-6.23,20.6,ASHRAETau
Environment:WarmupDays,  6
 Warmup Convergence Information,01_A1,SizingPeriod: LAKEHOODSEAPLANEANNCLG.4CONDNSDPMDB,6.7693762248E-005,1.4505435782E-004,Pass,Pass,3.8752250707E-002,7.3236170945E-002,Pass,Pass
 Warmup Convergence Information,01_A2,SizingPeriod: LAKEHOODSEAPLANEANNCLG.4CONDNSDPMDB,4.6962481827E-005,9.7997680008E-005,Pass,Pass,2.7339252464E-002,5.5603097381E-002,Pass,Pass
 Warmup Convergence Information,01_B2,SizingPeriod: LAKEHOODSEAPLANEANNCLG.4CONDNSDPMDB,1.5512683524E-002,3.0697034224E-002,Pass,Pass,5.1983980776E-002,0.1736359685,Pass,Pass
 Warmup Convergence Information,01_C1,SizingPeriod: LAKEHOODSEAPLANEANNCLG.4CONDNSDPMDB,1.6646333849E-002,3.8229694043E-002,Pass,Pass,5.6388781580E-002,0.1630033316,Pass,Pass
 Warmup Convergence Information,02_A1,SizingPeriod: LAKEHOODSEAPLANEANNCLG.4CONDNSDPMDB,3.4607470302E-005,7.1887995103E-005,Pass,Pass,1.8289807264E-002,3.1190261434E-002,Pass,Pass
 Warmup Convergence Information,02_A2,SizingPeriod: LAKEHOODSEAPLANEANNCLG.4CONDNSDPMDB,4.3117548386E-005,8.1382187058E-005,Pass,Pass,1.7654018919E-002,2.8792576129E-002,Pass,Pass
 Warmup Convergence Information,02_B2,SizingPeriod: LAKEHOODSEAPLANEANNCLG.4CONDNSDPMDB,2.7578181937E-005,5.2584353464E-005,Pass,Pass,2.0722818189E-002,3.1604215132E-002,Pass,Pass
 Warmup Convergence Information,02_C1,SizingPeriod: LAKEHOODSEAPLANEANNCLG.4CONDNSDPMDB,3.6204824886E-005,6.2621676171E-005,Pass,Pass,2.1735541683E-002,3.2702588204E-002,Pass,Pass
 Warmup Convergence Information,03_A1,SizingPeriod: LAKEHOODSEAPLANEANNCLG.4CONDNSDPMDB,3.5691922853E-005,7.5085043448E-005,Pass,Pass,2.0100988772E-002,3.5350628505E-002,Pass,Pass
 Warmup Convergence Information,03_A2,SizingPeriod: LAKEHOODSEAPLANEANNCLG.4CONDNSDPMDB,2.7981760652E-005,5.8644483297E-005,Pass,Pass,1.9124906757E-002,3.3910670222E-002,Pass,Pass
 Warmup Convergence Information,03_B2,SizingPeriod: LAKEHOODSEAPLANEANNCLG.4CONDNSDPMDB,2.5923375512E-005,4.9855216666E-005,Pass,Pass,2.2830881584E-002,3.6086199122E-002,Pass,Pass
 Warmup Convergence Information,03_C1,SizingPeriod: LAKEHOODSEAPLANEANNCLG.4CONDNSDPMDB,3.5355462034E-005,6.1274593686E-005,Pass,Pass,2.3821552959E-002,3.7137835985E-002,Pass,Pass
Environment,LAKEHOODSEAPLANEANNCLG.4CONDNSENTHMDB,SizingPeriod:DesignDay,07/21,07/21,SummerDesignDay,1,N/A,N/A,N/A,N/A,N/A,N/A
Environment:Daylight Saving,No,SizingPeriod:DesignDay
Environment:Design Day Data,22.20,6.80,DefaultMultipliers,101061,270,2.9,0.00,No,No
Environment:Design Day Misc,202,1084.4,0.2082,0.1365,1.0,-6.23,20.6,ASHRAETau
Environment:WarmupDays,  6
 Warmup Convergence Information,01_A1,SizingPeriod: LAKEHOODSEAPLANEANNCLG.4CONDNSENTHMDB,8.7711046092E-005,1.8563451430E-004,Pass,Pass,3.4593194769E-002,6.5757046468E-002,Pass,Pass
 Warmup Convergence Information,01_A2,SizingPeriod: LAKEHOODSEAPLANEANNCLG.4CONDNSENTHMDB,6.1975095172E-005,1.2987705740E-004,Pass,Pass,2.5695165139E-002,5.1935067571E-002,Pass,Pass
 Warmup Convergence Information,01_B2,SizingPeriod: LAKEHOODSEAPLANEANNCLG.4CONDNSENTHMDB,7.2893396383E-003,1.8669336890E-002,Pass,Pass,6.5465910811E-002,0.1926936207,Pass,Pass
 Warmup Convergence Information,01_C1,SizingPeriod: LAKEHOODSEAPLANEANNCLG.4CONDNSENTHMDB,9.4922625726E-003,2.6000712611E-002,Pass,Pass,0.1128287354,0.6611333108,Pass,Pass
 Warmup Convergence Information,02_A1,SizingPeriod: LAKEHOODSEAPLANEANNCLG.4CONDNSENTHMDB,4.4574207667E-005,9.3558048181E-005,Pass,Pass,1.7550329457E-002,2.9949023497E-002,Pass,Pass
 Warmup Convergence Information,02_A2,SizingPeriod: LAKEHOODSEAPLANEANNCLG.4CONDNSENTHMDB,5.3993262105E-005,1.0715104947E-004,Pass,Pass,1.6863090883E-002,2.7483677764E-002,Pass,Pass
 Warmup Convergence Information,02_B2,SizingPeriod: LAKEHOODSEAPLANEANNCLG.4CONDNSENTHMDB,3.4030427272E-005,6.6573285418E-005,Pass,Pass,1.9243679435E-002,2.9468827229E-002,Pass,Pass
 Warmup Convergence Information,02_C1,SizingPeriod: LAKEHOODSEAPLANEANNCLG.4CONDNSENTHMDB,4.2384338367E-005,7.6939437446E-005,Pass,Pass,2.0235633789E-002,3.0489780016E-002,Pass,Pass
 Warmup Convergence Information,03_A1,SizingPeriod: LAKEHOODSEAPLANEANNCLG.4CONDNSENTHMDB,4.6807431659E-005,9.7686471581E-005,Pass,Pass,1.9076370647E-002,3.3519534399E-002,Pass,Pass
 Warmup Convergence Information,03_A2,SizingPeriod: LAKEHOODSEAPLANEANNCLG.4CONDNSENTHMDB,3.5978581125E-005,7.7478776568E-005,Pass,Pass,1.7916873029E-002,3.1651500006E-002,Pass,Pass
 Warmup Convergence Information,03_B2,SizingPeriod: LAKEHOODSEAPLANEANNCLG.4CONDNSENTHMDB,3.2477551698E-005,6.3112166760E-005,Pass,Pass,2.0928535431E-002,3.2927744168E-002,Pass,Pass
 Warmup Convergence Information,03_C1,SizingPeriod: LAKEHOODSEAPLANEANNCLG.4CONDNSENTHMDB,4.1821021866E-005,7.4855794214E-005,Pass,Pass,2.1843940178E-002,3.3832711231E-002,Pass,Pass
Environment,LAKEHOODSEAPLANEANNCLG.4CONDNSWBMDB,SizingPeriod:DesignDay,07/21,07/21,SummerDesignDay,1,N/A,N/A,N/A,N/A,N/A,N/A
Environment:Daylight Saving,No,SizingPeriod:DesignDay
Environment:Design Day Data,22.20,6.80,DefaultMultipliers,101061,270,2.9,0.00,No,No
Environment:Design Day Misc,202,1084.4,0.2082,0.1365,1.0,-6.23,20.6,ASHRAETau
Environment:WarmupDays,  6
 Warmup Convergence Information,01_A1,SizingPeriod: LAKEHOODSEAPLANEANNCLG.4CONDNSWBMDB,6.4353629815E-005,1.3697170233E-004,Pass,Pass,3.4653512438E-002,6.5867894845E-002,Pass,Pass
 Warmup Convergence Information,01_A2,SizingPeriod: LAKEHOODSEAPLANEANNCLG.4CONDNSWBMDB,4.4762928348E-005,9.2783506917E-005,Pass,Pass,2.5707894073E-002,5.1983913307E-002,Pass,Pass
 Warmup Convergence Information,01_B2,SizingPeriod: LAKEHOODSEAPLANEANNCLG.4CONDNSWBMDB,7.3230860950E-003,1.8763632988E-002,Pass,Pass,6.5964083405E-002,0.1945087815,Pass,Pass
 Warmup Convergence Information,01_C1,SizingPeriod: LAKEHOODSEAPLANEANNCLG.4CONDNSWBMDB,9.5313996740E-003,2.6122574653E-002,Pass,Pass,0.1167100591,0.7047363673,Pass,Pass
 Warmup Convergence Information,02_A1,SizingPeriod: LAKEHOODSEAPLANEANNCLG.4CONDNSWBMDB,3.5891688276E-005,6.9921419386E-005,Pass,Pass,1.7562510880E-002,2.9966253336E-002,Pass,Pass
 Warmup Convergence Information,02_A2,SizingPeriod: LAKEHOODSEAPLANEANNCLG.4CONDNSWBMDB,4.3159210298E-005,7.8928723952E-005,Pass,Pass,1.6867625438E-002,2.7500549522E-002,Pass,Pass
 Warmup Convergence Information,02_B2,SizingPeriod: LAKEHOODSEAPLANEANNCLG.4CONDNSWBMDB,2.7750253370E-005,5.1177512313E-005,Pass,Pass,1.9255938833E-002,2.9504566142E-002,Pass,Pass
 Warmup Convergence Information,02_C1,SizingPeriod: LAKEHOODSEAPLANEANNCLG.4CONDNSWBMDB,3.7384015240E-005,6.1441675126E-005,Pass,Pass,2.0260208823E-002,3.0526349542E-002,Pass,Pass
 Warmup Convergence Information,03_A1,SizingPeriod: LAKEHOODSEAPLANEANNCLG.4CONDNSWBMDB,3.6467022703E-005,7.3209395820E-005,Pass,Pass,1.9096812487E-002,3.3561892006E-002,Pass,Pass
 Warmup Convergence Information,03_A2,SizingPeriod: LAKEHOODSEAPLANEANNCLG.4CONDNSWBMDB,2.7805742630E-005,5.7317588459E-005,Pass,Pass,1.7928224279E-002,3.1694565270E-002,Pass,Pass
 Warmup Convergence Information,03_B2,SizingPeriod: LAKEHOODSEAPLANEANNCLG.4CONDNSWBMDB,2.6043970679E-005,4.8715004275E-005,Pass,Pass,2.0952783880E-002,3.3002622505E-002,Pass,Pass
 Warmup Convergence Information,03_C1,SizingPeriod: LAKEHOODSEAPLANEANNCLG.4CONDNSWBMDB,3.6109786308E-005,6.0285644431E-005,Pass,Pass,2.1884613229E-002,3.3915274179E-002,Pass,Pass
Environment,LAKEHOODSEAPLANEANNHTG99.6CONDNSDB,SizingPeriod:DesignDay,01/21,01/21,WinterDesignDay,1,N/A,N/A,N/A,N/A,N/A,N/A
Environment:Daylight Saving,No,SizingPeriod:DesignDay
Environment:Design Day Data,-22.60,0.00,DefaultMultipliers,101061,350,1.1,0.00,No,No
Environment:Design Day Misc, 21,1229.0,0.1415,5.7310E-002,1.0,-11.15,-20.1,ASHRAEClearSky
Environment:WarmupDays,  6
 Warmup Convergence Information,01_A1,SizingPeriod: LAKEHOODSEAPLANEANNHTG99.6CONDNSDB,6.8683663412E-002,8.0730197383E-002,Pass,Pass,1.0559647720E-002,3.5794192248E-002,Pass,Pass
 Warmup Convergence Information,01_A2,SizingPeriod: LAKEHOODSEAPLANEANNHTG99.6CONDNSDB,8.9782807680E-002,0.1089047759,Pass,Pass,1.5006559307E-002,3.4690935668E-002,Pass,Pass
 Warmup Convergence Information,01_B2,SizingPeriod: LAKEHOODSEAPLANEANNHTG99.6CONDNSDB,6.3709160574E-002,6.6477183309E-002,Pass,Pass,4.6654786694E-003,8.5722511270E-003,Pass,Pass
 Warmup Convergence Information,01_C1,SizingPeriod: LAKEHOODSEAPLANEANNHTG99.6CONDNSDB,5.7020486635E-002,5.8335203005E-002,Pass,Pass,5.3127043404E-003,9.5105657764E-003,Pass,Pass
 Warmup Convergence Information,02_A1,SizingPeriod: LAKEHOODSEAPLANEANNHTG99.6CONDNSDB,1.5772287948E-002,3.0171487577E-002,Pass,Pass,1.7593415595E-002,4.4751113545E-002,Pass,Pass
 Warmup Convergence Information,02_A2,SizingPeriod: LAKEHOODSEAPLANEANNHTG99.6CONDNSDB,3.6029134354E-002,4.7909476942E-002,Pass,Pass,1.5847082508E-002,4.1464862730E-002,Pass,Pass
 Warmup Convergence Information,02_B2,SizingPeriod: LAKEHOODSEAPLANEANNHTG99.6CONDNSDB,4.2870074287E-002,5.2695404984E-002,Pass,Pass,1.3787160771E-002,4.2900241708E-002,Pass,Pass
 Warmup Convergence Information,02_C1,SizingPeriod: LAKEHOODSEAPLANEANNHTG99.6CONDNSDB,3.6740082941E-002,4.6906854322E-002,Pass,Pass,1.3693626115E-002,4.1711817279E-002,Pass,Pass
 Warmup Convergence Information,03_A1,SizingPeriod: LAKEHOODSEAPLANEANNHTG99.6CONDNSDB,2.9576570377E-002,3.9464765924E-002,Pass,Pass,1.6993102329E-002,4.9022909721E-002,Pass,Pass
 Warmup Convergence Information,03_A2,SizingPeriod: LAKEHOODSEAPLANEANNHTG99.6CONDNSDB,4.0261316823E-002,4.5568876990E-002,Pass,Pass,1.5752598210E-002,5.4349528148E-002,Pass,Pass
 Warmup Convergence Information,03_B2,SizingPeriod: LAKEHOODSEAPLANEANNHTG99.6CONDNSDB,5.8378445328E-002,6.0903007517E-002,Pass,Pass,1.1078199181E-002,2.5762714450E-002,Pass,Pass
 Warmup Convergence Information,03_C1,SizingPeriod: LAKEHOODSEAPLANEANNHTG99.6CONDNSDB,5.1584872495E-002,5.5830954167E-002,Pass,Pass,1.1163826102E-002,2.8422821007E-002,Pass,Pass
Environment,LAKEHOODSEAPLANEANNHTGWIND99.6CONDNSWSMCDB,SizingPeriod:DesignDay,01/21,01/21,WinterDesignDay,1,N/A,N/A,N/A,N/A,N/A,N/A
Environment:Daylight Saving,No,SizingPeriod:DesignDay
Environment:Design Day Data,-8.60,0.00,DefaultMultipliers,101061,350,9.4,0.00,No,No
Environment:Design Day Misc, 21,1229.0,0.1415,5.7310E-002,1.0,-11.15,-20.1,ASHRAEClearSky
Environment:WarmupDays,  6
 Warmup Convergence Information,01_A1,SizingPeriod: LAKEHOODSEAPLANEANNHTGWIND99.6CONDNSWSMCDB,3.6437230484E-002,5.3191198278E-002,Pass,Pass,2.0203367814E-002,6.6157040356E-002,Pass,Pass
 Warmup Convergence Information,01_A2,SizingPeriod: LAKEHOODSEAPLANEANNHTGWIND99.6CONDNSWSMCDB,3.9786525383E-002,7.1039536571E-002,Pass,Pass,2.2591855074E-002,5.6055285482E-002,Pass,Pass
 Warmup Convergence Information,01_B2,SizingPeriod: LAKEHOODSEAPLANEANNHTGWIND99.6CONDNSWSMCDB,5.4171592213E-002,6.2137820356E-002,Pass,Pass,1.3993546875E-002,3.8845476859E-002,Pass,Pass
 Warmup Convergence Information,01_C1,SizingPeriod: LAKEHOODSEAPLANEANNHTGWIND99.6CONDNSWSMCDB,5.0193654279E-002,5.5286548837E-002,Pass,Pass,1.4813823348E-002,4.0902433612E-002,Pass,Pass
 Warmup Convergence Information,02_A1,SizingPeriod: LAKEHOODSEAPLANEANNHTGWIND99.6CONDNSWSMCDB,2.0431421597E-005,4.1361491446E-005,Pass,Pass,1.8596800826E-002,4.3162992284E-002,Pass,Pass
 Warmup Convergence Information,02_A2,SizingPeriod: LAKEHOODSEAPLANEANNHTGWIND99.6CONDNSWSMCDB,2.4690641871E-005,4.6230555567E-005,Pass,Pass,1.9182662915E-002,4.3683768599E-002,Pass,Pass
 Warmup Convergence Information,02_B2,SizingPeriod: LAKEHOODSEAPLANEANNHTGWIND99.6CONDNSWSMCDB,4.3916190083E-003,1.2821836767E-002,Pass,Pass,2.4729655137E-002,6.0260315928E-002,Pass,Pass
 Warmup Convergence Information,02_C1,SizingPeriod: LAKEHOODSEAPLANEANNHTGWIND99.6CONDNSWSMCDB,2.7889212918E-003,8.5474054551E-003,Pass,Pass,2.5014608701E-002,5.7901353283E-002,Pass,Pass
 Warmup Convergence Information,03_A1,SizingPeriod: LAKEHOODSEAPLANEANNHTGWIND99.6CONDNSWSMCDB,1.9697970656E-005,4.3080146625E-005,Pass,Pass,2.0636244641E-002,5.2050675538E-002,Pass,Pass
 Warmup Convergence Information,03_A2,SizingPeriod: LAKEHOODSEAPLANEANNHTGWIND99.6CONDNSWSMCDB,1.4451034553E-005,3.2877394221E-005,Pass,Pass,2.3111681665E-002,6.0108514971E-002,Pass,Pass
 Warmup Convergence Information,03_B2,SizingPeriod: LAKEHOODSEAPLANEANNHTGWIND99.6CONDNSWSMCDB,9.4303688695E-003,1.9972070382E-002,Pass,Pass,2.5505597760E-002,7.7435857402E-002,Pass,Pass
 Warmup Convergence Information,03_C1,SizingPeriod: LAKEHOODSEAPLANEANNHTGWIND99.6CONDNSWSMCDB,7.6078531893E-003,1.7542429976E-002,Pass,Pass,2.5333379998E-002,7.1425788283E-002,Pass,Pass
Environment,LAKEHOODSEAPLANEANNHUM_N99.6CONDNSDPMCDB,SizingPeriod:DesignDay,01/21,01/21,WinterDesignDay,1,N/A,N/A,N/A,N/A,N/A,N/A
Environment:Daylight Saving,No,SizingPeriod:DesignDay
Environment:Design Day Data,-20.40,0.00,DefaultMultipliers,101061,350,1.1,0.00,No,No
Environment:Design Day Misc, 21,1229.0,0.1415,5.7310E-002,1.0,-11.15,-20.1,ASHRAEClearSky
Environment:WarmupDays,  6
 Warmup Convergence Information,01_A1,SizingPeriod: LAKEHOODSEAPLANEANNHUM_N99.6CONDNSDPMCDB,6.3922045139E-002,7.3792032111E-002,Pass,Pass,1.1600064456E-002,4.3182169008E-002,Pass,Pass
 Warmup Convergence Information,01_A2,SizingPeriod: LAKEHOODSEAPLANEANNHUM_N99.6CONDNSDPMCDB,8.3009674322E-002,9.7180341624E-002,Pass,Pass,1.5174921512E-002,4.2385879762E-002,Pass,Pass
 Warmup Convergence Information,01_B2,SizingPeriod: LAKEHOODSEAPLANEANNHUM_N99.6CONDNSDPMCDB,6.4276515714E-002,6.6206529933E-002,Pass,Pass,5.0590490929E-003,9.4289002707E-003,Pass,Pass
 Warmup Convergence Information,01_C1,SizingPeriod: LAKEHOODSEAPLANEANNHUM_N99.6CONDNSDPMCDB,5.7406990061E-002,5.8007621279E-002,Pass,Pass,5.7837756798E-003,1.0507174182E-002,Pass,Pass
 Warmup Convergence Information,02_A1,SizingPeriod: LAKEHOODSEAPLANEANNHUM_N99.6CONDNSDPMCDB,1.0448039530E-002,2.4071457341E-002,Pass,Pass,1.8539106393E-002,4.5334553959E-002,Pass,Pass
 Warmup Convergence Information,02_A2,SizingPeriod: LAKEHOODSEAPLANEANNHUM_N99.6CONDNSDPMCDB,2.7051607728E-002,4.7060487118E-002,Pass,Pass,1.6990116282E-002,4.3703783227E-002,Pass,Pass
 Warmup Convergence Information,02_B2,SizingPeriod: LAKEHOODSEAPLANEANNHUM_N99.6CONDNSDPMCDB,3.4339150972E-002,4.7221454409E-002,Pass,Pass,1.6190770967E-002,4.7432295660E-002,Pass,Pass
 Warmup Convergence Information,02_C1,SizingPeriod: LAKEHOODSEAPLANEANNHUM_N99.6CONDNSDPMCDB,2.9230342103E-002,4.1586513916E-002,Pass,Pass,1.5680020654E-002,4.9847286556E-002,Pass,Pass
 Warmup Convergence Information,03_A1,SizingPeriod: LAKEHOODSEAPLANEANNHUM_N99.6CONDNSDPMCDB,2.3115759065E-002,3.8206698093E-002,Pass,Pass,1.8099768051E-002,5.2403918689E-002,Pass,Pass
 Warmup Convergence Information,03_A2,SizingPeriod: LAKEHOODSEAPLANEANNHUM_N99.6CONDNSDPMCDB,3.2236475691E-002,4.0395334425E-002,Pass,Pass,1.8243806731E-002,5.4476141862E-002,Pass,Pass
 Warmup Convergence Information,03_B2,SizingPeriod: LAKEHOODSEAPLANEANNHUM_N99.6CONDNSDPMCDB,4.8259318241E-002,5.9413278948E-002,Pass,Pass,1.5985230777E-002,5.0897175908E-002,Pass,Pass
 Warmup Convergence Information,03_C1,SizingPeriod: LAKEHOODSEAPLANEANNHUM_N99.6CONDNSDPMCDB,4.2540662924E-002,5.3765382640E-002,Pass,Pass,1.5079458744E-002,4.9609032661E-002,Pass,Pass
Environment,RUN PERIOD 1,WeatherFileRunPeriod,01/01,12/31,Sunday,365,Use RunPeriod Specified Day,No,No,No,Yes,Yes
Environment:Daylight Saving,No,RunPeriod Object
Environment:WarmupDays,  6
 Warmup Convergence Information,01_A1,RunPeriod: RUN PERIOD 1,7.4823561559E-007,7.9106897019E-007,Pass,Pass,1.3075499704E-002,2.3621532216E-002,Pass,Pass
 Warmup Convergence Information,01_A2,RunPeriod: RUN PERIOD 1,8.4749139124E-007,9.4484187907E-007,Pass,Pass,2.1472208203E-002,3.5079812189E-002,Pass,Pass
 Warmup Convergence Information,01_B2,RunPeriod: RUN PERIOD 1,3.4936853235E-007,3.5330522649E-007,Pass,Pass,6.1697434768E-003,1.1127697834E-002,Pass,Pass
 Warmup Convergence Information,01_C1,RunPeriod: RUN PERIOD 1,2.6791312346E-007,2.8278778328E-007,Pass,Pass,7.0436389238E-003,1.4345533946E-002,Pass,Pass
 Warmup Convergence Information,02_A1,RunPeriod: RUN PERIOD 1,1.1384509039E-006,3.7541711227E-006,Pass,Pass,6.6005635923E-002,0.1256603094,Pass,Pass
 Warmup Convergence Information,02_A2,RunPeriod: RUN PERIOD 1,1.2916969195E-006,3.7385641682E-006,Pass,Pass,7.1502326683E-002,0.2276281175,Pass,Pass
 Warmup Convergence Information,02_B2,RunPeriod: RUN PERIOD 1,2.2860149820E-007,2.5169076432E-007,Pass,Pass,1.3810885339E-002,2.4992212055E-002,Pass,Pass
 Warmup Convergence Information,02_C1,RunPeriod: RUN PERIOD 1,2.8380691622E-007,2.8691895871E-007,Pass,Pass,1.8546948210E-002,3.8609449941E-002,Pass,Pass
 Warmup Convergence Information,03_A1,RunPeriod: RUN PERIOD 1,4.6103111403E-007,5.3306409024E-007,Pass,Pass,3.7202072587E-002,6.8208395440E-002,Pass,Pass
 Warmup Convergence Information,03_A2,RunPeriod: RUN PERIOD 1,5.0551529029E-007,1.6487259407E-006,Pass,Pass,5.6584989336E-002,0.1770052432,Pass,Pass
 Warmup Convergence Information,03_B2,RunPeriod: RUN PERIOD 1,1.9796929288E-007,2.1848130805E-007,Pass,Pass,1.2342307243E-002,1.9076104209E-002,Pass,Pass
 Warmup Convergence Information,03_C1,RunPeriod: RUN PERIOD 1,2.4668676124E-007,2.5086586265E-007,Pass,Pass,1.5102995829E-002,2.8469110552E-002,Pass,Pass
! <Program Control Information:Threads/Parallel Sims>, Threading Supported,Maximum Number of Threads, Env Set Threads (OMP_NUM_THREADS), EP Env Set Threads (EP_OMP_NUM_THREADS), IDF Set Threads, Number of Threads Used (Interior Radiant Exchange), Number Nominal Surfaces, Number Parallel Sims
Program Control:Threads/Parallel Sims, No,1, N/A, N/A, N/A, N/A, N/A, N/A
End of Data
